MODEL 1
REMARK minimizedAffinity 5.07154369
REMARK minimizedRMSD -1
REMARK  1 active torsions:
REMARK  status: ('A' for Active; 'I' for Inactive)
REMARK    1  A    between atoms: C1_2  and  C2_3 
ROOT
ATOM      1  C2  UNL d   1      -3.865   1.083  -1.148  0.00  0.00    -0.077 A 
ATOM      2  C3  UNL d   1      -3.328   1.979  -0.213  0.00  0.00     0.002 A 
ATOM      3  C4  UNL d   1      -1.972   2.309  -0.249  0.00  0.00     0.002 A 
ATOM      4  C5  UNL d   1      -1.143   1.750  -1.220  0.00  0.00    -0.004 A 
ATOM      5  C6  UNL d   1      -1.667   0.856  -2.153  0.00  0.00     0.002 A 
ATOM      6  C7  UNL d   1      -3.022   0.525  -2.117  0.00  0.00     0.002 A 
ENDROOT
BRANCH   1   7
ATOM      7  C1  UNL d   1      -5.337   0.764  -1.141  0.00  0.00     0.055 C 
ATOM      8  C   UNL d   1      -5.657  -0.353  -0.158  0.00  0.00     0.019 C 
ENDBRANCH   1   7
TORSDOF 1
ENDMDL
