MODEL 1
REMARK minimizedAffinity 4.86020231
REMARK minimizedRMSD -1
REMARK  1 active torsions:
REMARK  status: ('A' for Active; 'I' for Inactive)
REMARK    1  A    between atoms: C1_2  and  C2_3 
ROOT
ATOM      1  C2  UNL d   1      -4.634   2.041  -3.815  0.00  0.00    -0.077 A 
ATOM      2  C3  UNL d   1      -4.707   3.331  -4.360  0.00  0.00     0.002 A 
ATOM      3  C4  UNL d   1      -5.382   4.347  -3.680  0.00  0.00     0.002 A 
ATOM      4  C5  UNL d   1      -5.985   4.086  -2.452  0.00  0.00    -0.004 A 
ATOM      5  C6  UNL d   1      -5.919   2.806  -1.903  0.00  0.00     0.002 A 
ATOM      6  C7  UNL d   1      -5.246   1.788  -2.581  0.00  0.00     0.002 A 
ENDROOT
BRANCH   1   7
ATOM      7  C1  UNL d   1      -3.865   0.957  -4.522  0.00  0.00     0.055 C 
ATOM      8  C   UNL d   1      -2.375   1.051  -4.226  0.00  0.00     0.019 C 
ENDBRANCH   1   7
TORSDOF 1
ENDMDL
