MODEL 1
REMARK minimizedAffinity 3.29733992
REMARK minimizedRMSD -1
REMARK  1 active torsions:
REMARK  status: ('A' for Active; 'I' for Inactive)
REMARK    1  A    between atoms: C1_2  and  C2_3 
ROOT
ATOM      1  C2  UNL d   1       3.632  -0.325  -0.349  0.00  0.00    -0.077 A 
ATOM      2  C3  UNL d   1       4.044  -0.774  -1.611  0.00  0.00     0.002 A 
ATOM      3  C4  UNL d   1       3.665  -2.037  -2.070  0.00  0.00     0.002 A 
ATOM      4  C5  UNL d   1       2.869  -2.859  -1.275  0.00  0.00    -0.004 A 
ATOM      5  C6  UNL d   1       2.456  -2.422  -0.017  0.00  0.00     0.002 A 
ATOM      6  C7  UNL d   1       2.835  -1.161   0.444  0.00  0.00     0.002 A 
ENDROOT
BRANCH   1   7
ATOM      7  C1  UNL d   1       3.999   1.056   0.128  0.00  0.00     0.055 C 
ATOM      8  C   UNL d   1       5.499   1.294   0.034  0.00  0.00     0.019 C 
ENDBRANCH   1   7
TORSDOF 1
ENDMDL
