MODEL 1
REMARK minimizedAffinity 3.18129706
REMARK minimizedRMSD -1
REMARK  1 active torsions:
REMARK  status: ('A' for Active; 'I' for Inactive)
REMARK    1  A    between atoms: C1_2  and  C2_3 
ROOT
ATOM      1  C2  UNL d   1       1.204   1.026   0.815  0.00  0.00    -0.077 A 
ATOM      2  C3  UNL d   1      -0.004   1.245   0.138  0.00  0.00     0.002 A 
ATOM      3  C4  UNL d   1      -1.217   1.214   0.828  0.00  0.00     0.002 A 
ATOM      4  C5  UNL d   1      -1.234   0.968   2.200  0.00  0.00    -0.004 A 
ATOM      5  C6  UNL d   1      -0.038   0.747   2.882  0.00  0.00     0.002 A 
ATOM      6  C7  UNL d   1       1.175   0.776   2.193  0.00  0.00     0.002 A 
ENDROOT
BRANCH   1   7
ATOM      7  C1  UNL d   1       2.517   1.108   0.081  0.00  0.00     0.055 C 
ATOM      8  C   UNL d   1       3.012  -0.273  -0.323  0.00  0.00     0.019 C 
ENDBRANCH   1   7
TORSDOF 1
ENDMDL
