MODEL 1
REMARK minimizedAffinity 1.13258564
REMARK minimizedRMSD -1
REMARK  1 active torsions:
REMARK  status: ('A' for Active; 'I' for Inactive)
REMARK    1  A    between atoms: C1_2  and  C2_3 
ROOT
ATOM      1  C2  UNL d   1      -0.584   0.952   0.607  0.00  0.00    -0.077 A 
ATOM      2  C3  UNL d   1       0.701   0.557   0.208  0.00  0.00     0.002 A 
ATOM      3  C4  UNL d   1       1.589   0.007   1.133  0.00  0.00     0.002 A 
ATOM      4  C5  UNL d   1       1.202  -0.157   2.461  0.00  0.00    -0.004 A 
ATOM      5  C6  UNL d   1      -0.072   0.234   2.868  0.00  0.00     0.002 A 
ATOM      6  C7  UNL d   1      -0.962   0.786   1.945  0.00  0.00     0.002 A 
ENDROOT
BRANCH   1   7
ATOM      7  C1  UNL d   1      -1.561   1.501  -0.400  0.00  0.00     0.055 C 
ATOM      8  C   UNL d   1      -2.306   0.382  -1.115  0.00  0.00     0.019 C 
ENDBRANCH   1   7
TORSDOF 1
ENDMDL
