MODEL 1
REMARK minimizedAffinity -4.13345098
REMARK minimizedRMSD -1
REMARK  0 active torsions:
REMARK  status: ('A' for Active; 'I' for Inactive)
ROOT
ATOM      1  C4' PXY d   1       3.251  -0.043   0.919  0.00  0.00     0.077 C 
ATOM      2  C1' PXY d   1      -2.222   0.344  -0.899  0.00  0.00     0.077 C 
ATOM      3  C1  PXY d   1      -0.790   0.232  -0.416  0.00  0.00    -0.082 A 
ATOM      4  C2  PXY d   1      -0.036   1.317  -0.344  0.00  0.00     0.003 A 
ATOM      5  C3  PXY d   1       1.271   1.229   0.061  0.00  0.00     0.003 A 
ATOM      6  C4  PXY d   1       1.797   0.025   0.446  0.00  0.00    -0.082 A 
ATOM      7  C5  PXY d   1       1.032  -1.086   0.385  0.00  0.00     0.003 A 
ATOM      8  C6  PXY d   1      -0.281  -0.981  -0.068  0.00  0.00     0.003 A 
ENDROOT
TORSDOF 0
ENDMDL
