MODEL 1
REMARK minimizedAffinity -5.06370926
REMARK minimizedRMSD -1
REMARK  0 active torsions:
REMARK  status: ('A' for Active; 'I' for Inactive)
ROOT
ATOM      1  C4' PXY d   1      -2.344   1.013  -1.269  0.00  0.00     0.077 C 
ATOM      2  C1' PXY d   1       2.883  -0.462   0.712  0.00  0.00     0.077 C 
ATOM      3  C1  PXY d   1       1.514  -0.063   0.195  0.00  0.00    -0.082 A 
ATOM      4  C2  PXY d   1       0.539  -0.956   0.169  0.00  0.00     0.003 A 
ATOM      5  C3  PXY d   1      -0.696  -0.621  -0.324  0.00  0.00     0.003 A 
ATOM      6  C4  PXY d   1      -0.949   0.657  -0.747  0.00  0.00    -0.082 A 
ATOM      7  C5  PXY d   1       0.038   1.577  -0.714  0.00  0.00     0.003 A 
ATOM      8  C6  PXY d   1       1.296   1.205  -0.248  0.00  0.00     0.003 A 
ENDROOT
TORSDOF 0
ENDMDL
