MODEL 1
REMARK minimizedAffinity -5.2005229
REMARK minimizedRMSD -1
REMARK  0 active torsions:
REMARK  status: ('A' for Active; 'I' for Inactive)
ROOT
ATOM      1  C4' PXY d   1      -1.885  -0.058  -0.118  0.00  0.00     0.077 C 
ATOM      2  C1' PXY d   1       3.586  -0.735   1.621  0.00  0.00     0.077 C 
ATOM      3  C1  PXY d   1       2.149  -0.570   1.165  0.00  0.00    -0.082 A 
ATOM      4  C2  PXY d   1       1.785   0.537   0.540  0.00  0.00     0.003 A 
ATOM      5  C3  PXY d   1       0.483   0.716   0.149  0.00  0.00     0.003 A 
ATOM      6  C4  PXY d   1      -0.444  -0.271   0.353  0.00  0.00    -0.082 A 
ATOM      7  C5  PXY d   1      -0.077  -1.409   0.980  0.00  0.00     0.003 A 
ATOM      8  C6  PXY d   1       1.240  -1.554   1.406  0.00  0.00     0.003 A 
ENDROOT
TORSDOF 0
ENDMDL
