MODEL 1
REMARK minimizedAffinity -3.69407845
REMARK minimizedRMSD -1
REMARK  0 active torsions:
REMARK  status: ('A' for Active; 'I' for Inactive)
ROOT
ATOM      1  C4' PXY d   1      -1.732  -0.007  -0.967  0.00  0.00     0.077 C 
ATOM      2  C1' PXY d   1       3.546  -0.222   1.381  0.00  0.00     0.077 C 
ATOM      3  C1  PXY d   1       2.163  -0.179   0.764  0.00  0.00    -0.082 A 
ATOM      4  C2  PXY d   1       1.727   0.943   0.213  0.00  0.00     0.003 A 
ATOM      5  C3  PXY d   1       0.466   1.009  -0.321  0.00  0.00     0.003 A 
ATOM      6  C4  PXY d   1      -0.338  -0.100  -0.340  0.00  0.00    -0.082 A 
ATOM      7  C5  PXY d   1       0.104  -1.251   0.210  0.00  0.00     0.003 A 
ATOM      8  C6  PXY d   1       1.371  -1.285   0.784  0.00  0.00     0.003 A 
ENDROOT
TORSDOF 0
ENDMDL
