MODEL 1
REMARK minimizedAffinity -4.17382479
REMARK minimizedRMSD -1
REMARK  0 active torsions:
REMARK  status: ('A' for Active; 'I' for Inactive)
ROOT
ATOM      1  C4' PXY d   1      -1.943   0.718  -0.760  0.00  0.00     0.077 C 
ATOM      2  C1' PXY d   1       3.398  -0.513   1.078  0.00  0.00     0.077 C 
ATOM      3  C1  PXY d   1       1.999  -0.178   0.600  0.00  0.00    -0.082 A 
ATOM      4  C2  PXY d   1       1.098  -1.141   0.486  0.00  0.00     0.003 A 
ATOM      5  C3  PXY d   1      -0.162  -0.861   0.025  0.00  0.00     0.003 A 
ATOM      6  C4  PXY d   1      -0.521   0.427  -0.272  0.00  0.00    -0.082 A 
ATOM      7  C5  PXY d   1       0.389   1.417  -0.148  0.00  0.00     0.003 A 
ATOM      8  C6  PXY d   1       1.675   1.105   0.283  0.00  0.00     0.003 A 
ENDROOT
TORSDOF 0
ENDMDL
