MODEL 1
REMARK minimizedAffinity -3.58380103
REMARK minimizedRMSD -1
REMARK  0 active torsions:
REMARK  status: ('A' for Active; 'I' for Inactive)
ROOT
ATOM      1  C4' PXY d   1       1.104  -2.904   2.063  0.00  0.00     0.077 C 
ATOM      2  C1' PXY d   1       1.968   2.249  -0.412  0.00  0.00     0.077 C 
ATOM      3  C1  PXY d   1       1.754   0.894   0.235  0.00  0.00    -0.082 A 
ATOM      4  C2  PXY d   1       0.542   0.364   0.258  0.00  0.00     0.003 A 
ATOM      5  C3  PXY d   1       0.325  -0.845   0.867  0.00  0.00     0.003 A 
ATOM      6  C4  PXY d   1       1.369  -1.543   1.412  0.00  0.00    -0.082 A 
ATOM      7  C5  PXY d   1       2.610  -1.014   1.384  0.00  0.00     0.003 A 
ATOM      8  C6  PXY d   1       2.802   0.233   0.797  0.00  0.00     0.003 A 
ENDROOT
TORSDOF 0
ENDMDL
