MODEL 1
REMARK minimizedAffinity -2.37199306
REMARK minimizedRMSD -1
REMARK  0 active torsions:
REMARK  status: ('A' for Active; 'I' for Inactive)
ROOT
ATOM      1  C   UNL d   1      -1.134  -0.770  -0.403  0.00  0.00    -0.002 A 
ATOM      2  C1  UNL d   1      -1.276   0.560  -0.033  0.00  0.00     0.010 A 
ATOM      3  C2  UNL d   1      -0.198   1.267   0.505  0.00  0.00     0.041 A 
ATOM      4  C3  UNL d   1       1.037   0.609   0.665  0.00  0.00    -0.075 A 
ATOM      5  S   UNL d   1       2.494   1.274   1.302  0.00  0.00     0.015 SA
ATOM      6  C4  UNL d   1       3.340  -0.192   1.097  0.00  0.00     0.022 A 
ATOM      7  C5  UNL d   1       2.545  -1.175   0.557  0.00  0.00     0.026 A 
ATOM      8  C6  UNL d   1       1.205  -0.730   0.299  0.00  0.00    -0.082 A 
ATOM      9  C7  UNL d   1       0.093  -1.419  -0.243  0.00  0.00     0.045 A 
ENDROOT
TORSDOF 0
ENDMDL
