MODEL 1
REMARK minimizedAffinity -1.94373596
REMARK minimizedRMSD -1
REMARK  0 active torsions:
REMARK  status: ('A' for Active; 'I' for Inactive)
ROOT
ATOM      1  C   UNL d   1       3.446   0.202   0.745  0.00  0.00    -0.002 A 
ATOM      2  C1  UNL d   1       3.130  -1.150   0.742  0.00  0.00     0.010 A 
ATOM      3  C2  UNL d   1       1.818  -1.572   0.518  0.00  0.00     0.041 A 
ATOM      4  C3  UNL d   1       0.820  -0.604   0.294  0.00  0.00    -0.075 A 
ATOM      5  S   UNL d   1      -0.855  -0.888  -0.004  0.00  0.00     0.015 SA
ATOM      6  C4  UNL d   1      -1.190   0.778  -0.135  0.00  0.00     0.022 A 
ATOM      7  C5  UNL d   1      -0.064   1.546   0.042  0.00  0.00     0.026 A 
ATOM      8  C6  UNL d   1       1.113   0.762   0.291  0.00  0.00    -0.082 A 
ATOM      9  C7  UNL d   1       2.452   1.159   0.522  0.00  0.00     0.045 A 
ENDROOT
TORSDOF 0
ENDMDL
