MODEL 1
REMARK minimizedAffinity -2.63214469
REMARK minimizedRMSD -1
REMARK  0 active torsions:
REMARK  status: ('A' for Active; 'I' for Inactive)
ROOT
ATOM      1  C   UNL d   1       1.152   0.815   0.333  0.00  0.00    -0.002 A 
ATOM      2  C1  UNL d   1       1.349  -0.497  -0.073  0.00  0.00     0.010 A 
ATOM      3  C2  UNL d   1       0.407  -1.140  -0.879  0.00  0.00     0.041 A 
ATOM      4  C3  UNL d   1      -0.746  -0.434  -1.275  0.00  0.00    -0.075 A 
ATOM      5  S   UNL d   1      -2.034  -1.018  -2.261  0.00  0.00     0.015 SA
ATOM      6  C4  UNL d   1      -2.876   0.462  -2.167  0.00  0.00     0.022 A 
ATOM      7  C5  UNL d   1      -2.205   1.389  -1.405  0.00  0.00     0.026 A 
ATOM      8  C6  UNL d   1      -0.966   0.888  -0.879  0.00  0.00    -0.082 A 
ATOM      9  C7  UNL d   1       0.007   1.512  -0.061  0.00  0.00     0.045 A 
ENDROOT
TORSDOF 0
ENDMDL
