MODEL 1
REMARK minimizedAffinity -3.74504113
REMARK minimizedRMSD -1
REMARK  0 active torsions:
REMARK  status: ('A' for Active; 'I' for Inactive)
ROOT
ATOM      1  C   UNL d   1       3.153  -0.722   1.236  0.00  0.00    -0.002 A 
ATOM      2  C1  UNL d   1       2.341  -1.834   1.410  0.00  0.00     0.010 A 
ATOM      3  C2  UNL d   1       0.994  -1.794   1.042  0.00  0.00     0.041 A 
ATOM      4  C3  UNL d   1       0.473  -0.607   0.490  0.00  0.00    -0.075 A 
ATOM      5  S   UNL d   1      -1.145  -0.327  -0.034  0.00  0.00     0.015 SA
ATOM      6  C4  UNL d   1      -0.796   1.274  -0.502  0.00  0.00     0.022 A 
ATOM      7  C5  UNL d   1       0.518   1.604  -0.271  0.00  0.00     0.026 A 
ATOM      8  C6  UNL d   1       1.272   0.525   0.304  0.00  0.00    -0.082 A 
ATOM      9  C7  UNL d   1       2.633   0.453   0.687  0.00  0.00     0.045 A 
ENDROOT
TORSDOF 0
ENDMDL
