MODEL 1
REMARK minimizedAffinity -0.804712296
REMARK minimizedRMSD -1
REMARK  0 active torsions:
REMARK  status: ('A' for Active; 'I' for Inactive)
ROOT
ATOM      1  C   UNL d   1       3.392   0.401   1.305  0.00  0.00    -0.002 A 
ATOM      2  C1  UNL d   1       3.197  -0.972   1.255  0.00  0.00     0.010 A 
ATOM      3  C2  UNL d   1       1.992  -1.502   0.790  0.00  0.00     0.041 A 
ATOM      4  C3  UNL d   1       0.977  -0.620   0.369  0.00  0.00    -0.075 A 
ATOM      5  S   UNL d   1      -0.581  -1.041  -0.239  0.00  0.00     0.015 SA
ATOM      6  C4  UNL d   1      -1.023   0.591  -0.448  0.00  0.00     0.022 A 
ATOM      7  C5  UNL d   1      -0.020   1.450  -0.068  0.00  0.00     0.026 A 
ATOM      8  C6  UNL d   1       1.150   0.767   0.409  0.00  0.00    -0.082 A 
ATOM      9  C7  UNL d   1       2.383   1.273   0.887  0.00  0.00     0.045 A 
ENDROOT
TORSDOF 0
ENDMDL
