MODEL 1
REMARK minimizedAffinity 1.05136788
REMARK minimizedRMSD -1
REMARK  2 active torsions:
REMARK  status: ('A' for Active; 'I' for Inactive)
REMARK    1  A    between atoms: C2'_3  and  C1'_4 
REMARK    2  A    between atoms: C1'_4  and  C1_5 
ROOT
ATOM      1  C1  I4B d   1       0.385  -1.858  -1.986  0.00  0.00    -0.075 A 
ATOM      2  C2  I4B d   1      -0.947  -2.016  -2.280  0.00  0.00     0.003 A 
ATOM      3  C3  I4B d   1      -1.927  -1.821  -1.277  0.00  0.00     0.002 A 
ATOM      4  C4  I4B d   1      -1.531  -1.520   0.010  0.00  0.00    -0.004 A 
ATOM      5  C5  I4B d   1      -0.182  -1.337   0.302  0.00  0.00     0.002 A 
ATOM      6  C6  I4B d   1       0.781  -1.496  -0.705  0.00  0.00     0.003 A 
ENDROOT
BRANCH   1   7
ATOM      7  C1' I4B d   1       1.395  -2.105  -3.061  0.00  0.00     0.060 C 
BRANCH   7   8
ATOM      8  C2' I4B d   1       2.633  -2.690  -2.413  0.00  0.00    -0.013 C 
ATOM      9  C4' I4B d   1       2.837  -4.125  -2.823  0.00  0.00     0.013 C 
ATOM     10  C3' I4B d   1       3.806  -1.843  -2.806  0.00  0.00     0.013 C 
ENDBRANCH   7   8
ENDBRANCH   1   7
TORSDOF 2
ENDMDL
