MODEL 1
REMARK minimizedAffinity 3.72576404
REMARK minimizedRMSD -1
REMARK  0 active torsions:
REMARK  status: ('A' for Active; 'I' for Inactive)
ROOT
ATOM      1  C   UNL d   1      -2.575  -1.363   2.375  0.00  0.00     0.020 A 
ATOM      2  C1  UNL d   1      -2.635  -0.311   1.461  0.00  0.00     0.020 A 
ATOM      3  C2  UNL d   1      -2.392  -0.548   0.107  0.00  0.00     0.034 A 
ATOM      4  C3  UNL d   1      -2.088  -1.840  -0.338  0.00  0.00     0.017 A 
ATOM      5  C4  UNL d   1      -2.028  -2.895   0.579  0.00  0.00     0.017 A 
ATOM      6  C5  UNL d   1      -2.272  -2.652   1.934  0.00  0.00     0.034 A 
ATOM      7 Cl   UNL d   1      -1.658  -4.515   0.105  0.00  0.00    -0.070 Cl
ATOM      8 Cl1  UNL d   1      -1.799  -2.060  -2.028  0.00  0.00    -0.070 Cl
ENDROOT
TORSDOF 0
ENDMDL
