MODEL 1
REMARK minimizedAffinity 3.21165276
REMARK minimizedRMSD -1
REMARK  0 active torsions:
REMARK  status: ('A' for Active; 'I' for Inactive)
ROOT
ATOM      1  C   UNL d   1      -2.781   0.061   1.573  0.00  0.00     0.020 A 
ATOM      2  C1  UNL d   1      -4.135   0.392   1.536  0.00  0.00     0.020 A 
ATOM      3  C2  UNL d   1      -4.894   0.100   0.401  0.00  0.00     0.034 A 
ATOM      4  C3  UNL d   1      -4.300  -0.524  -0.701  0.00  0.00     0.017 A 
ATOM      5  C4  UNL d   1      -2.941  -0.856  -0.663  0.00  0.00     0.017 A 
ATOM      6  C5  UNL d   1      -2.186  -0.562   0.476  0.00  0.00     0.034 A 
ATOM      7 Cl   UNL d   1      -2.138  -1.629  -1.985  0.00  0.00    -0.070 Cl
ATOM      8 Cl1  UNL d   1      -5.300  -0.856  -2.071  0.00  0.00    -0.070 Cl
ENDROOT
TORSDOF 0
ENDMDL
