MODEL 1
REMARK minimizedAffinity 3.30175114
REMARK minimizedRMSD -1
REMARK  0 active torsions:
REMARK  status: ('A' for Active; 'I' for Inactive)
ROOT
ATOM      1  C   UNL d   1      -5.912  -1.266  -0.634  0.00  0.00     0.020 A 
ATOM      2  C1  UNL d   1      -5.999  -1.062   0.742  0.00  0.00     0.020 A 
ATOM      3  C2  UNL d   1      -4.865  -0.690   1.467  0.00  0.00     0.034 A 
ATOM      4  C3  UNL d   1      -3.638  -0.521   0.816  0.00  0.00     0.017 A 
ATOM      5  C4  UNL d   1      -3.551  -0.725  -0.566  0.00  0.00     0.017 A 
ATOM      6  C5  UNL d   1      -4.690  -1.098  -1.287  0.00  0.00     0.034 A 
ATOM      7 Cl   UNL d   1      -2.072  -0.536  -1.440  0.00  0.00    -0.070 Cl
ATOM      8 Cl1  UNL d   1      -2.276  -0.059   1.774  0.00  0.00    -0.070 Cl
ENDROOT
TORSDOF 0
ENDMDL
