MODEL 1
REMARK minimizedAffinity 3.79457903
REMARK minimizedRMSD -1
REMARK  0 active torsions:
REMARK  status: ('A' for Active; 'I' for Inactive)
ROOT
ATOM      1  C   UNL d   1      -1.094  -1.555   5.999  0.00  0.00     0.020 A 
ATOM      2  C1  UNL d   1       0.289  -1.732   5.999  0.00  0.00     0.020 A 
ATOM      3  C2  UNL d   1       0.827  -3.021   5.999  0.00  0.00     0.034 A 
ATOM      4  C3  UNL d   1      -0.018  -4.137   5.998  0.00  0.00     0.017 A 
ATOM      5  C4  UNL d   1      -1.406  -3.958   5.998  0.00  0.00     0.017 A 
ATOM      6  C5  UNL d   1      -1.940  -2.665   5.998  0.00  0.00     0.034 A 
ATOM      7 Cl   UNL d   1      -2.512  -5.286   5.998  0.00  0.00    -0.070 Cl
ATOM      8 Cl1  UNL d   1       0.717  -5.701   5.998  0.00  0.00    -0.070 Cl
ENDROOT
TORSDOF 0
ENDMDL
