MODEL 1
REMARK minimizedAffinity 21.5925369
REMARK minimizedRMSD -1
REMARK  0 active torsions:
REMARK  status: ('A' for Active; 'I' for Inactive)
ROOT
ATOM      1  C   UNL d   1      -3.479   1.058   0.910  0.00  0.00     0.020 A 
ATOM      2  C1  UNL d   1      -2.247   0.535   1.301  0.00  0.00     0.020 A 
ATOM      3  C2  UNL d   1      -2.060  -0.848   1.349  0.00  0.00     0.034 A 
ATOM      4  C3  UNL d   1      -3.105  -1.713   1.005  0.00  0.00     0.017 A 
ATOM      5  C4  UNL d   1      -4.341  -1.186   0.613  0.00  0.00     0.017 A 
ATOM      6  C5  UNL d   1      -4.524   0.199   0.566  0.00  0.00     0.034 A 
ATOM      7 Cl   UNL d   1      -5.679  -2.190   0.175  0.00  0.00    -0.070 Cl
ATOM      8 Cl1  UNL d   1      -2.803  -3.412   1.087  0.00  0.00    -0.070 Cl
ENDROOT
TORSDOF 0
ENDMDL
