MODEL 1
REMARK minimizedAffinity 9.92378426
REMARK minimizedRMSD -1
REMARK  0 active torsions:
REMARK  status: ('A' for Active; 'I' for Inactive)
ROOT
ATOM      1  C   UNL d   1       6.000   1.664   2.463  0.00  0.00     0.020 A 
ATOM      2  C1  UNL d   1       5.249   0.648   1.875  0.00  0.00     0.020 A 
ATOM      3  C2  UNL d   1       3.858   0.757   1.808  0.00  0.00     0.034 A 
ATOM      4  C3  UNL d   1       3.214   1.884   2.330  0.00  0.00     0.017 A 
ATOM      5  C4  UNL d   1       3.969   2.904   2.921  0.00  0.00     0.017 A 
ATOM      6  C5  UNL d   1       5.362   2.790   2.985  0.00  0.00     0.034 A 
ATOM      7 Cl   UNL d   1       3.247   4.325   3.587  0.00  0.00    -0.070 Cl
ATOM      8 Cl1  UNL d   1       1.492   1.953   2.213  0.00  0.00    -0.070 Cl
ENDROOT
TORSDOF 0
ENDMDL
