MODEL 1
REMARK minimizedAffinity 9.25041389
REMARK minimizedRMSD -1
REMARK  0 active torsions:
REMARK  status: ('A' for Active; 'I' for Inactive)
ROOT
ATOM      1  C   UNL d   1      -0.747  -6.000   0.243  0.00  0.00     0.020 A 
ATOM      2  C1  UNL d   1      -0.510  -5.864  -1.124  0.00  0.00     0.020 A 
ATOM      3  C2  UNL d   1      -0.742  -4.641  -1.755  0.00  0.00     0.034 A 
ATOM      4  C3  UNL d   1      -1.213  -3.547  -1.019  0.00  0.00     0.017 A 
ATOM      5  C4  UNL d   1      -1.451  -3.684   0.353  0.00  0.00     0.017 A 
ATOM      6  C5  UNL d   1      -1.217  -4.912   0.980  0.00  0.00     0.034 A 
ATOM      7 Cl   UNL d   1      -2.033  -2.381   1.328  0.00  0.00    -0.070 Cl
ATOM      8 Cl1  UNL d   1      -1.478  -2.064  -1.864  0.00  0.00    -0.070 Cl
ENDROOT
TORSDOF 0
ENDMDL
