MODEL 1
REMARK minimizedAffinity -4.63036394
REMARK minimizedRMSD -1
REMARK  2 active torsions:
REMARK  status: ('A' for Active; 'I' for Inactive)
REMARK    1  A    between atoms: C2'_3  and  C1'_4 
REMARK    2  A    between atoms: C1'_4  and  C1_5 
ROOT
ATOM      1  C1  I4B d   1       0.162   0.009   0.282  0.00  0.00    -0.075 A 
ATOM      2  C2  I4B d   1      -0.807  -0.200   1.232  0.00  0.00     0.003 A 
ATOM      3  C3  I4B d   1      -0.443  -0.482   2.571  0.00  0.00     0.002 A 
ATOM      4  C4  I4B d   1       0.891  -0.595   2.904  0.00  0.00    -0.004 A 
ATOM      5  C5  I4B d   1       1.872  -0.361   1.944  0.00  0.00     0.002 A 
ATOM      6  C6  I4B d   1       1.506  -0.045   0.628  0.00  0.00     0.003 A 
ENDROOT
BRANCH   1   7
ATOM      7  C1' I4B d   1      -0.257   0.272  -1.129  0.00  0.00     0.060 C 
BRANCH   7   8
ATOM      8  C2' I4B d   1      -0.372   1.772  -1.310  0.00  0.00    -0.013 C 
ATOM      9  C4' I4B d   1       0.914   2.359  -1.829  0.00  0.00     0.013 C 
ATOM     10  C3' I4B d   1      -1.508   2.039  -2.252  0.00  0.00     0.013 C 
ENDBRANCH   7   8
ENDBRANCH   1   7
TORSDOF 2
ENDMDL
