MODEL 1
REMARK minimizedAffinity -4.51733589
REMARK minimizedRMSD -1
REMARK  2 active torsions:
REMARK  status: ('A' for Active; 'I' for Inactive)
REMARK    1  A    between atoms: C2'_3  and  C1'_4 
REMARK    2  A    between atoms: C1'_4  and  C1_5 
ROOT
ATOM      1  C1  I4B d   1       0.415  -0.533   0.700  0.00  0.00    -0.075 A 
ATOM      2  C2  I4B d   1       1.657  -0.807   0.185  0.00  0.00     0.003 A 
ATOM      3  C3  I4B d   1       2.564  -1.622   0.906  0.00  0.00     0.002 A 
ATOM      4  C4  I4B d   1       2.207  -2.097   2.152  0.00  0.00    -0.004 A 
ATOM      5  C5  I4B d   1       0.939  -1.837   2.662  0.00  0.00     0.002 A 
ATOM      6  C6  I4B d   1       0.032  -1.060   1.926  0.00  0.00     0.003 A 
ENDROOT
BRANCH   1   7
ATOM      7  C1' I4B d   1      -0.505   0.358  -0.073  0.00  0.00     0.060 C 
BRANCH   7   8
ATOM      8  C2' I4B d   1      -0.047   0.361  -1.518  0.00  0.00    -0.013 C 
ATOM      9  C4' I4B d   1      -0.276  -0.980  -2.164  0.00  0.00     0.013 C 
ATOM     10  C3' I4B d   1      -0.794   1.443  -2.238  0.00  0.00     0.013 C 
ENDBRANCH   7   8
ENDBRANCH   1   7
TORSDOF 2
ENDMDL
