MODEL 1
REMARK minimizedAffinity -1.40570474
REMARK minimizedRMSD -1
REMARK  2 active torsions:
REMARK  status: ('A' for Active; 'I' for Inactive)
REMARK    1  A    between atoms: C2'_3  and  C1'_4 
REMARK    2  A    between atoms: C1'_4  and  C1_5 
ROOT
ATOM      1  C1  I4B d   1      -0.570   0.285  -0.768  0.00  0.00    -0.075 A 
ATOM      2  C2  I4B d   1       0.773   0.006  -0.786  0.00  0.00     0.003 A 
ATOM      3  C3  I4B d   1       1.407  -0.520   0.365  0.00  0.00     0.002 A 
ATOM      4  C4  I4B d   1       0.675  -0.704   1.520  0.00  0.00    -0.004 A 
ATOM      5  C5  I4B d   1      -0.692  -0.443   1.530  0.00  0.00     0.002 A 
ATOM      6  C6  I4B d   1      -1.322   0.044   0.375  0.00  0.00     0.003 A 
ENDROOT
BRANCH   1   7
ATOM      7  C1' I4B d   1      -1.201   0.871  -1.991  0.00  0.00     0.060 C 
BRANCH   7   8
ATOM      8  C2' I4B d   1      -0.773   2.321  -2.088  0.00  0.00    -0.013 C 
ATOM      9  C4' I4B d   1       0.586   2.447  -2.727  0.00  0.00     0.013 C 
ATOM     10  C3' I4B d   1      -1.812   3.060  -2.877  0.00  0.00     0.013 C 
ENDBRANCH   7   8
ENDBRANCH   1   7
TORSDOF 2
ENDMDL
