MODEL 1
REMARK minimizedAffinity -3.88052654
REMARK minimizedRMSD -1
REMARK  1 active torsions:
REMARK  status: ('A' for Active; 'I' for Inactive)
REMARK    1  A    between atoms: C1_2  and  C2_3 
ROOT
ATOM      1  C2  UNL d   1      -0.186   0.004  -1.011  0.00  0.00    -0.081 A 
ATOM      2  C3  UNL d   1      -1.135   0.247  -0.010  0.00  0.00     0.006 A 
ATOM      3  C4  UNL d   1      -0.814   0.046   1.334  0.00  0.00     0.002 A 
ATOM      4  C5  UNL d   1       0.463  -0.392   1.701  0.00  0.00    -0.080 A 
ATOM      5  C6  UNL d   1       0.830  -0.582   3.143  0.00  0.00     0.076 C 
ATOM      6  C7  UNL d   1       1.406  -0.650   0.701  0.00  0.00     0.002 A 
ATOM      7  C8  UNL d   1       1.085  -0.451  -0.644  0.00  0.00     0.006 A 
ENDROOT
BRANCH   1   8
ATOM      8  C1  UNL d   1      -0.509   0.282  -2.457  0.00  0.00     0.054 C 
ATOM      9  C   UNL d   1      -1.527   1.405  -2.591  0.00  0.00     0.018 C 
ENDBRANCH   1   8
TORSDOF 1
ENDMDL
