MODEL 1
REMARK minimizedAffinity -2.0971818
REMARK minimizedRMSD -1
REMARK  1 active torsions:
REMARK  status: ('A' for Active; 'I' for Inactive)
REMARK    1  A    between atoms: C1_2  and  C2_3 
ROOT
ATOM      1  C2  UNL d   1      -0.317   0.332   0.055  0.00  0.00    -0.081 A 
ATOM      2  C3  UNL d   1       0.724   1.224   0.338  0.00  0.00     0.006 A 
ATOM      3  C4  UNL d   1       1.578   0.996   1.420  0.00  0.00     0.002 A 
ATOM      4  C5  UNL d   1       1.410  -0.131   2.232  0.00  0.00    -0.080 A 
ATOM      5  C6  UNL d   1       2.338  -0.404   3.378  0.00  0.00     0.076 C 
ATOM      6  C7  UNL d   1       0.358  -1.013   1.960  0.00  0.00     0.002 A 
ATOM      7  C8  UNL d   1      -0.496  -0.785   0.879  0.00  0.00     0.006 A 
ENDROOT
BRANCH   1   8
ATOM      8  C1  UNL d   1      -1.199   0.541  -1.149  0.00  0.00     0.054 C 
ATOM      9  C   UNL d   1      -0.689   1.682  -2.017  0.00  0.00     0.018 C 
ENDBRANCH   1   8
TORSDOF 1
ENDMDL
