MODEL 1
REMARK minimizedAffinity -5.1292758
REMARK minimizedRMSD -1
REMARK  1 active torsions:
REMARK  status: ('A' for Active; 'I' for Inactive)
REMARK    1  A    between atoms: C1_2  and  C2_3 
ROOT
ATOM      1  C2  UNL d   1      -0.649   0.243  -0.812  0.00  0.00    -0.081 A 
ATOM      2  C3  UNL d   1      -1.469   0.244   0.323  0.00  0.00     0.006 A 
ATOM      3  C4  UNL d   1      -0.945  -0.090   1.574  0.00  0.00     0.002 A 
ATOM      4  C5  UNL d   1       0.407  -0.422   1.712  0.00  0.00    -0.080 A 
ATOM      5  C6  UNL d   1       0.989  -0.753   3.055  0.00  0.00     0.076 C 
ATOM      6  C7  UNL d   1       1.222  -0.440   0.575  0.00  0.00     0.002 A 
ATOM      7  C8  UNL d   1       0.699  -0.107  -0.676  0.00  0.00     0.006 A 
ENDROOT
BRANCH   1   8
ATOM      8  C1  UNL d   1      -1.196   0.665  -2.152  0.00  0.00     0.054 C 
ATOM      9  C   UNL d   1      -0.827   2.107  -2.471  0.00  0.00     0.018 C 
ENDBRANCH   1   8
TORSDOF 1
ENDMDL
