MODEL 1
REMARK minimizedAffinity 1.12023437
REMARK minimizedRMSD -1
REMARK  1 active torsions:
REMARK  status: ('A' for Active; 'I' for Inactive)
REMARK    1  A    between atoms: C1_2  and  C2_3 
ROOT
ATOM      1  C2  UNL d   1      -0.046   0.168  -0.399  0.00  0.00    -0.081 A 
ATOM      2  C3  UNL d   1      -0.974  -0.188  -1.385  0.00  0.00     0.006 A 
ATOM      3  C4  UNL d   1      -1.366   0.737  -2.356  0.00  0.00     0.002 A 
ATOM      4  C5  UNL d   1      -0.832   2.030  -2.362  0.00  0.00    -0.080 A 
ATOM      5  C6  UNL d   1      -1.222   3.022  -3.416  0.00  0.00     0.076 C 
ATOM      6  C7  UNL d   1       0.082   2.391  -1.366  0.00  0.00     0.002 A 
ATOM      7  C8  UNL d   1       0.474   1.467  -0.395  0.00  0.00     0.006 A 
ENDROOT
BRANCH   1   8
ATOM      8  C1  UNL d   1       0.428  -0.846   0.610  0.00  0.00     0.054 C 
ATOM      9  C   UNL d   1       1.872  -0.589   1.017  0.00  0.00     0.018 C 
ENDBRANCH   1   8
TORSDOF 1
ENDMDL
