MODEL 1
REMARK minimizedAffinity 3.27091765
REMARK minimizedRMSD -1
REMARK  1 active torsions:
REMARK  status: ('A' for Active; 'I' for Inactive)
REMARK    1  A    between atoms: C1_2  and  C2_3 
ROOT
ATOM      1  C2  UNL d   1      -0.495  -0.510   2.272  0.00  0.00    -0.081 A 
ATOM      2  C3  UNL d   1      -0.835   0.538   3.137  0.00  0.00     0.006 A 
ATOM      3  C4  UNL d   1      -2.128   1.065   3.138  0.00  0.00     0.002 A 
ATOM      4  C5  UNL d   1      -3.106   0.547   2.281  0.00  0.00    -0.080 A 
ATOM      5  C6  UNL d   1      -4.507   1.083   2.293  0.00  0.00     0.076 C 
ATOM      6  C7  UNL d   1      -2.762  -0.488   1.404  0.00  0.00     0.002 A 
ATOM      7  C8  UNL d   1      -1.468  -1.014   1.402  0.00  0.00     0.006 A 
ENDROOT
BRANCH   1   8
ATOM      8  C1  UNL d   1       0.881  -1.123   2.314  0.00  0.00     0.054 C 
ATOM      9  C   UNL d   1       1.456  -1.097   3.723  0.00  0.00     0.018 C 
ENDBRANCH   1   8
TORSDOF 1
ENDMDL
