MODEL 1
REMARK minimizedAffinity -5.72806549
REMARK minimizedRMSD -1
REMARK  1 active torsions:
REMARK  status: ('A' for Active; 'I' for Inactive)
REMARK    1  A    between atoms: C1_2  and  C2_3 
ROOT
ATOM      1  C2  UNL d   1      -0.306   0.142  -0.779  0.00  0.00    -0.081 A 
ATOM      2  C3  UNL d   1      -1.077   0.273   0.383  0.00  0.00     0.006 A 
ATOM      3  C4  UNL d   1      -0.528  -0.021   1.633  0.00  0.00     0.002 A 
ATOM      4  C5  UNL d   1       0.801  -0.443   1.744  0.00  0.00    -0.080 A 
ATOM      5  C6  UNL d   1       1.411  -0.733   3.083  0.00  0.00     0.076 C 
ATOM      6  C7  UNL d   1       1.565  -0.592   0.582  0.00  0.00     0.002 A 
ATOM      7  C8  UNL d   1       1.017  -0.298  -0.669  0.00  0.00     0.006 A 
ENDROOT
BRANCH   1   8
ATOM      8  C1  UNL d   1      -0.875   0.520  -2.123  0.00  0.00     0.054 C 
ATOM      9  C   UNL d   1      -0.793   2.022  -2.355  0.00  0.00     0.018 C 
ENDBRANCH   1   8
TORSDOF 1
ENDMDL
