MODEL 1
REMARK minimizedAffinity -2.97349238
REMARK minimizedRMSD -1
REMARK  1 active torsions:
REMARK  status: ('A' for Active; 'I' for Inactive)
REMARK    1  A    between atoms: C1_2  and  C2_3 
ROOT
ATOM      1  C2  UNL d   1      -0.354   0.471  -1.123  0.00  0.00    -0.081 A 
ATOM      2  C3  UNL d   1      -1.266   0.284  -0.077  0.00  0.00     0.006 A 
ATOM      3  C4  UNL d   1      -0.839  -0.222   1.153  0.00  0.00     0.002 A 
ATOM      4  C5  UNL d   1       0.508  -0.540   1.361  0.00  0.00    -0.080 A 
ATOM      5  C6  UNL d   1       0.985  -1.055   2.686  0.00  0.00     0.076 C 
ATOM      6  C7  UNL d   1       1.416  -0.369   0.311  0.00  0.00     0.002 A 
ATOM      7  C8  UNL d   1       0.989   0.136  -0.920  0.00  0.00     0.006 A 
ENDROOT
BRANCH   1   8
ATOM      8  C1  UNL d   1      -0.800   1.077  -2.429  0.00  0.00     0.054 C 
ATOM      9  C   UNL d   1      -0.315   2.513  -2.567  0.00  0.00     0.018 C 
ENDBRANCH   1   8
TORSDOF 1
ENDMDL
