MODEL 1
REMARK minimizedAffinity -2.72953939
REMARK minimizedRMSD -1
REMARK  1 active torsions:
REMARK  status: ('A' for Active; 'I' for Inactive)
REMARK    1  A    between atoms: C1_2  and  C2_3 
ROOT
ATOM      1  C2  UNL d   1       2.062  -1.419   1.832  0.00  0.00    -0.081 A 
ATOM      2  C3  UNL d   1       0.780  -1.717   1.355  0.00  0.00     0.006 A 
ATOM      3  C4  UNL d   1      -0.336  -1.035   1.847  0.00  0.00     0.002 A 
ATOM      4  C5  UNL d   1      -0.187  -0.039   2.818  0.00  0.00    -0.080 A 
ATOM      5  C6  UNL d   1      -1.372   0.722   3.333  0.00  0.00     0.076 C 
ATOM      6  C7  UNL d   1       1.092   0.248   3.307  0.00  0.00     0.002 A 
ATOM      7  C8  UNL d   1       2.208  -0.434   2.815  0.00  0.00     0.006 A 
ENDROOT
BRANCH   1   8
ATOM      8  C1  UNL d   1       3.273  -2.107   1.256  0.00  0.00     0.054 C 
ATOM      9  C   UNL d   1       3.050  -2.496  -0.198  0.00  0.00     0.018 C 
ENDBRANCH   1   8
TORSDOF 1
ENDMDL
