MODEL 1
REMARK minimizedAffinity -1.61848938
REMARK minimizedRMSD -1
REMARK  1 active torsions:
REMARK  status: ('A' for Active; 'I' for Inactive)
REMARK    1  A    between atoms: C3_4  and  O_7 
ROOT
ATOM      1  C   UNL d   1       2.226  -1.644   4.326  0.00  0.00    -0.033 A 
ATOM      2  C1  UNL d   1       2.237  -0.309   3.917  0.00  0.00     0.039 A 
ATOM      3  C2  UNL d   1       2.948   0.068   2.776  0.00  0.00    -0.080 A 
ATOM      4  C3  UNL d   1       3.643  -0.898   2.054  0.00  0.00     0.150 A 
ATOM      5  C4  UNL d   1       3.633  -2.231   2.453  0.00  0.00    -0.007 A 
ATOM      6  C5  UNL d   1       2.923  -2.605   3.593  0.00  0.00     0.039 A 
ENDROOT
BRANCH   4   7
ATOM      7  O   UNL d   1       4.356  -0.578   0.937  0.00  0.00    -0.526 OA
ATOM      8  H5  UNL d   1       4.295   0.382   0.798  0.00  0.00     0.418 HD
ENDBRANCH   4   7
TORSDOF 1
ENDMDL
