MODEL 1
REMARK minimizedAffinity -3.84509301
REMARK minimizedRMSD -1
REMARK  1 active torsions:
REMARK  status: ('A' for Active; 'I' for Inactive)
REMARK    1  A    between atoms: C3_4  and  O_7 
ROOT
ATOM      1  C   UNL d   1      -4.952  -5.185  -1.998  0.00  0.00    -0.033 A 
ATOM      2  C1  UNL d   1      -4.651  -5.994  -3.095  0.00  0.00     0.039 A 
ATOM      3  C2  UNL d   1      -4.980  -5.575  -4.385  0.00  0.00    -0.080 A 
ATOM      4  C3  UNL d   1      -5.607  -4.345  -4.565  0.00  0.00     0.150 A 
ATOM      5  C4  UNL d   1      -5.906  -3.532  -3.477  0.00  0.00    -0.007 A 
ATOM      6  C5  UNL d   1      -5.578  -3.953  -2.189  0.00  0.00     0.039 A 
ENDROOT
BRANCH   4   7
ATOM      7  O   UNL d   1      -5.952  -3.895  -5.805  0.00  0.00    -0.526 OA
ATOM      8  H5  UNL d   1      -5.710  -4.575  -6.457  0.00  0.00     0.418 HD
ENDBRANCH   4   7
TORSDOF 1
ENDMDL
