MODEL 1
REMARK minimizedAffinity -1.30648339
REMARK minimizedRMSD -1
REMARK  1 active torsions:
REMARK  status: ('A' for Active; 'I' for Inactive)
REMARK    1  A    between atoms: C3_4  and  O_7 
ROOT
ATOM      1  C   UNL d   1      -5.208  -5.479  -5.960  0.00  0.00    -0.033 A 
ATOM      2  C1  UNL d   1      -4.443  -4.330  -5.752  0.00  0.00     0.039 A 
ATOM      3  C2  UNL d   1      -4.456  -3.696  -4.508  0.00  0.00    -0.080 A 
ATOM      4  C3  UNL d   1      -5.238  -4.221  -3.482  0.00  0.00     0.150 A 
ATOM      5  C4  UNL d   1      -6.000  -5.367  -3.682  0.00  0.00    -0.007 A 
ATOM      6  C5  UNL d   1      -5.986  -5.998  -4.925  0.00  0.00     0.039 A 
ENDROOT
BRANCH   4   7
ATOM      7  O   UNL d   1      -5.287  -3.634  -2.252  0.00  0.00    -0.526 OA
ATOM      8  H5  UNL d   1      -4.733  -2.836  -2.270  0.00  0.00     0.418 HD
ENDBRANCH   4   7
TORSDOF 1
ENDMDL
