MODEL 1
REMARK minimizedAffinity 1.20194197
REMARK minimizedRMSD -1
REMARK  1 active torsions:
REMARK  status: ('A' for Active; 'I' for Inactive)
REMARK    1  A    between atoms: C3_4  and  O_7 
ROOT
ATOM      1  C   UNL d   1       4.115   5.810  -4.156  0.00  0.00    -0.033 A 
ATOM      2  C1  UNL d   1       3.253   5.724  -3.061  0.00  0.00     0.039 A 
ATOM      3  C2  UNL d   1       3.763   5.773  -1.763  0.00  0.00    -0.080 A 
ATOM      4  C3  UNL d   1       5.135   5.909  -1.573  0.00  0.00     0.150 A 
ATOM      5  C4  UNL d   1       6.000   6.000  -2.658  0.00  0.00    -0.007 A 
ATOM      6  C5  UNL d   1       5.489   5.950  -3.955  0.00  0.00     0.039 A 
ENDROOT
BRANCH   4   7
ATOM      7  O   UNL d   1       5.680   5.957  -0.324  0.00  0.00    -0.526 OA
ATOM      8  H5  UNL d   1       4.967   5.854   0.328  0.00  0.00     0.418 HD
ENDBRANCH   4   7
TORSDOF 1
ENDMDL
