MODEL 1
REMARK minimizedAffinity -4.04781437
REMARK minimizedRMSD -1
REMARK  1 active torsions:
REMARK  status: ('A' for Active; 'I' for Inactive)
REMARK    1  A    between atoms: C3_4  and  O_7 
ROOT
ATOM      1  C   UNL d   1      -4.613  -5.627  -2.593  0.00  0.00    -0.033 A 
ATOM      2  C1  UNL d   1      -5.542  -4.593  -2.470  0.00  0.00     0.039 A 
ATOM      3  C2  UNL d   1      -6.000  -3.924  -3.608  0.00  0.00    -0.080 A 
ATOM      4  C3  UNL d   1      -5.522  -4.300  -4.860  0.00  0.00     0.150 A 
ATOM      5  C4  UNL d   1      -4.599  -5.333  -4.990  0.00  0.00    -0.007 A 
ATOM      6  C5  UNL d   1      -4.142  -5.998  -3.853  0.00  0.00     0.039 A 
ENDROOT
BRANCH   4   7
ATOM      7  O   UNL d   1      -5.935  -3.674  -5.998  0.00  0.00    -0.526 OA
ATOM      8  H5  UNL d   1      -6.551  -2.963  -5.752  0.00  0.00     0.418 HD
ENDBRANCH   4   7
TORSDOF 1
ENDMDL
