MODEL 1
REMARK minimizedAffinity -4.22589636
REMARK minimizedRMSD -1
REMARK  1 active torsions:
REMARK  status: ('A' for Active; 'I' for Inactive)
REMARK    1  A    between atoms: C3_4  and  O_7 
ROOT
ATOM      1  C   UNL d   1      -5.984  -4.232  -2.497  0.00  0.00    -0.033 A 
ATOM      2  C1  UNL d   1      -5.977  -3.636  -3.760  0.00  0.00     0.039 A 
ATOM      3  C2  UNL d   1      -5.257  -4.218  -4.805  0.00  0.00    -0.080 A 
ATOM      4  C3  UNL d   1      -4.551  -5.396  -4.575  0.00  0.00     0.150 A 
ATOM      5  C4  UNL d   1      -4.558  -5.998  -3.320  0.00  0.00    -0.007 A 
ATOM      6  C5  UNL d   1      -5.276  -5.414  -2.278  0.00  0.00     0.039 A 
ENDROOT
BRANCH   4   7
ATOM      7  O   UNL d   1      -3.830  -6.000  -5.562  0.00  0.00    -0.526 OA
ATOM      8  H5  UNL d   1      -3.894  -5.457  -6.365  0.00  0.00     0.418 HD
ENDBRANCH   4   7
TORSDOF 1
ENDMDL
