MODEL 1
REMARK minimizedAffinity -4.02316046
REMARK minimizedRMSD -1
REMARK  1 active torsions:
REMARK  status: ('A' for Active; 'I' for Inactive)
REMARK    1  A    between atoms: C3_4  and  O_7 
ROOT
ATOM      1  C   UNL d   1      -5.424  -5.771  -2.589  0.00  0.00    -0.033 A 
ATOM      2  C1  UNL d   1      -5.802  -4.522  -2.093  0.00  0.00     0.039 A 
ATOM      3  C2  UNL d   1      -6.000  -3.452  -2.968  0.00  0.00    -0.080 A 
ATOM      4  C3  UNL d   1      -5.818  -3.644  -4.334  0.00  0.00     0.150 A 
ATOM      5  C4  UNL d   1      -5.445  -4.887  -4.836  0.00  0.00    -0.007 A 
ATOM      6  C5  UNL d   1      -5.247  -5.954  -3.961  0.00  0.00     0.039 A 
ENDROOT
BRANCH   4   7
ATOM      7  O   UNL d   1      -5.995  -2.628  -5.227  0.00  0.00    -0.526 OA
ATOM      8  H5  UNL d   1      -6.223  -1.822  -4.734  0.00  0.00     0.418 HD
ENDBRANCH   4   7
TORSDOF 1
ENDMDL
