MODEL 1
REMARK minimizedAffinity -3.07286406
REMARK minimizedRMSD -1
REMARK  1 active torsions:
REMARK  status: ('A' for Active; 'I' for Inactive)
REMARK    1  A    between atoms: C3_4  and  O_7 
ROOT
ATOM      1  C   UNL d   1      -5.197  -5.241  -1.917  0.00  0.00    -0.033 A 
ATOM      2  C1  UNL d   1      -4.139  -5.994  -2.431  0.00  0.00     0.039 A 
ATOM      3  C2  UNL d   1      -3.885  -5.998  -3.804  0.00  0.00    -0.080 A 
ATOM      4  C3  UNL d   1      -4.694  -5.245  -4.650  0.00  0.00     0.150 A 
ATOM      5  C4  UNL d   1      -5.747  -4.490  -4.144  0.00  0.00    -0.007 A 
ATOM      6  C5  UNL d   1      -6.000  -4.488  -2.773  0.00  0.00     0.039 A 
ENDROOT
BRANCH   4   7
ATOM      7  O   UNL d   1      -4.489  -5.221  -5.998  0.00  0.00    -0.526 OA
ATOM      8  H5  UNL d   1      -3.746  -5.812  -6.206  0.00  0.00     0.418 HD
ENDBRANCH   4   7
TORSDOF 1
ENDMDL
