MODEL 1
REMARK minimizedAffinity 10.0569725
REMARK minimizedRMSD -1
REMARK  0 active torsions:
REMARK  status: ('A' for Active; 'I' for Inactive)
ROOT
ATOM      1  C1  DEN d   1      -2.175   0.377  -2.116  0.00  0.00     0.130 A 
ATOM      2  C2  DEN d   1      -2.480  -0.097  -3.463  0.00  0.00    -0.031 A 
ATOM      3  C3  DEN d   1      -3.926  -0.386  -3.529  0.00  0.00     0.027 A 
ATOM      4  C4  DEN d   1      -5.715  -0.141  -1.687  0.00  0.00     0.027 A 
ATOM      5  C5  DEN d   1      -5.933   0.213  -0.374  0.00  0.00    -0.003 A 
ATOM      6  C6  DEN d   1      -4.916   0.612   0.453  0.00  0.00     0.001 A 
ATOM      7  C7  DEN d   1      -3.641   0.709  -0.037  0.00  0.00     0.017 A 
ATOM      8  C8  DEN d   1      -3.412   0.346  -1.358  0.00  0.00    -0.094 A 
ATOM      9  C9  DEN d   1      -4.455  -0.043  -2.181  0.00  0.00    -0.072 A 
ENDROOT
TORSDOF 0
ENDMDL
