MODEL 1
REMARK minimizedAffinity 6.58209085
REMARK minimizedRMSD -1
REMARK  0 active torsions:
REMARK  status: ('A' for Active; 'I' for Inactive)
ROOT
ATOM      1  C1  DEN d   1       4.214   2.145  -2.307  0.00  0.00     0.130 A 
ATOM      2  C2  DEN d   1       5.240   2.813  -1.511  0.00  0.00    -0.031 A 
ATOM      3  C3  DEN d   1       5.106   2.351  -0.115  0.00  0.00     0.027 A 
ATOM      4  C4  DEN d   1       3.424   0.671   0.885  0.00  0.00     0.027 A 
ATOM      5  C5  DEN d   1       2.354  -0.149   0.602  0.00  0.00    -0.003 A 
ATOM      6  C6  DEN d   1       1.812  -0.236  -0.653  0.00  0.00     0.001 A 
ATOM      7  C7  DEN d   1       2.368   0.477  -1.683  0.00  0.00     0.017 A 
ATOM      8  C8  DEN d   1       3.442   1.311  -1.404  0.00  0.00    -0.094 A 
ATOM      9  C9  DEN d   1       3.983   1.376  -0.131  0.00  0.00    -0.072 A 
ENDROOT
TORSDOF 0
ENDMDL
