MODEL 1
REMARK minimizedAffinity 14.3163719
REMARK minimizedRMSD -1
REMARK  0 active torsions:
REMARK  status: ('A' for Active; 'I' for Inactive)
ROOT
ATOM      1  C1  DEN d   1      -3.739   5.999   4.719  0.00  0.00     0.130 A 
ATOM      2  C2  DEN d   1      -4.440   5.909   5.996  0.00  0.00    -0.031 A 
ATOM      3  C3  DEN d   1      -5.452   4.839   5.887  0.00  0.00     0.027 A 
ATOM      4  C4  DEN d   1      -5.995   3.318   3.876  0.00  0.00     0.027 A 
ATOM      5  C5  DEN d   1      -5.674   3.029   2.569  0.00  0.00    -0.003 A 
ATOM      6  C6  DEN d   1      -4.716   3.726   1.881  0.00  0.00     0.001 A 
ATOM      7  C7  DEN d   1      -4.014   4.719   2.512  0.00  0.00     0.017 A 
ATOM      8  C8  DEN d   1      -4.338   5.021   3.828  0.00  0.00    -0.094 A 
ATOM      9  C9  DEN d   1      -5.301   4.296   4.510  0.00  0.00    -0.072 A 
ENDROOT
TORSDOF 0
ENDMDL
