MODEL 1
REMARK minimizedAffinity 10.6114054
REMARK minimizedRMSD -1
REMARK  2 active torsions:
REMARK  status: ('A' for Active; 'I' for Inactive)
REMARK    1  A    between atoms: C1_2  and  C2_3 
REMARK    2  A    between atoms: C2_3  and  C3_4 
ROOT
ATOM      1  C3  UNL d   1      -5.597  -3.170  -4.810  0.00  0.00    -0.075 A 
ATOM      2  C4  UNL d   1      -5.471  -3.890  -3.613  0.00  0.00     0.002 A 
ATOM      3  C5  UNL d   1      -5.558  -5.282  -3.612  0.00  0.00     0.002 A 
ATOM      4  C6  UNL d   1      -5.783  -5.970  -4.803  0.00  0.00    -0.004 A 
ATOM      5  C7  UNL d   1      -5.926  -5.264  -5.995  0.00  0.00     0.002 A 
ATOM      6  C8  UNL d   1      -5.834  -3.871  -6.000  0.00  0.00     0.002 A 
ENDROOT
BRANCH   1   7
ATOM      7  C2  UNL d   1      -5.474  -1.665  -4.823  0.00  0.00     0.056 C 
BRANCH   7   8
ATOM      8  C1  UNL d   1      -4.461  -1.113  -3.814  0.00  0.00     0.007 C 
ATOM      9  C   UNL d   1      -4.141   0.360  -4.029  0.00  0.00     0.009 C 
ENDBRANCH   7   8
ENDBRANCH   1   7
TORSDOF 2
ENDMDL
