MODEL 1
REMARK minimizedAffinity 2.42946243
REMARK minimizedRMSD -1
REMARK  2 active torsions:
REMARK  status: ('A' for Active; 'I' for Inactive)
REMARK    1  A    between atoms: C1_2  and  C2_3 
REMARK    2  A    between atoms: C2_3  and  C3_4 
ROOT
ATOM      1  C3  UNL d   1      -1.159  -2.636   0.536  0.00  0.00    -0.075 A 
ATOM      2  C4  UNL d   1       0.001  -3.310   0.127  0.00  0.00     0.002 A 
ATOM      3  C5  UNL d   1      -0.029  -4.682  -0.125  0.00  0.00     0.002 A 
ATOM      4  C6  UNL d   1      -1.213  -5.397   0.038  0.00  0.00    -0.004 A 
ATOM      5  C7  UNL d   1      -2.367  -4.741   0.460  0.00  0.00     0.002 A 
ATOM      6  C8  UNL d   1      -2.342  -3.368   0.709  0.00  0.00     0.002 A 
ENDROOT
BRANCH   1   7
ATOM      7  C2  UNL d   1      -1.141  -1.146   0.782  0.00  0.00     0.056 C 
BRANCH   7   8
ATOM      8  C1  UNL d   1      -1.808  -0.323  -0.325  0.00  0.00     0.007 C 
ATOM      9  C   UNL d   1      -1.066   0.969  -0.642  0.00  0.00     0.009 C 
ENDBRANCH   7   8
ENDBRANCH   1   7
TORSDOF 2
ENDMDL
