MODEL 1
REMARK minimizedAffinity 7.52102757
REMARK minimizedRMSD -1
REMARK  2 active torsions:
REMARK  status: ('A' for Active; 'I' for Inactive)
REMARK    1  A    between atoms: C1_2  and  C2_3 
REMARK    2  A    between atoms: C2_3  and  C3_4 
ROOT
ATOM      1  C3  UNL d   1       0.980  -5.222  -1.517  0.00  0.00    -0.075 A 
ATOM      2  C4  UNL d   1       1.435  -5.308  -0.193  0.00  0.00     0.002 A 
ATOM      3  C5  UNL d   1       0.546  -5.164   0.872  0.00  0.00     0.002 A 
ATOM      4  C6  UNL d   1      -0.804  -4.923   0.629  0.00  0.00    -0.004 A 
ATOM      5  C7  UNL d   1      -1.264  -4.819  -0.682  0.00  0.00     0.002 A 
ATOM      6  C8  UNL d   1      -0.378  -4.967  -1.750  0.00  0.00     0.002 A 
ENDROOT
BRANCH   1   7
ATOM      7  C2  UNL d   1       1.932  -5.406  -2.675  0.00  0.00     0.056 C 
BRANCH   7   8
ATOM      8  C1  UNL d   1       3.025  -4.336  -2.760  0.00  0.00     0.007 C 
ATOM      9  C   UNL d   1       4.359  -4.878  -3.255  0.00  0.00     0.009 C 
ENDBRANCH   7   8
ENDBRANCH   1   7
TORSDOF 2
ENDMDL
