MODEL 1
REMARK minimizedAffinity 6.62217236
REMARK minimizedRMSD -1
REMARK  2 active torsions:
REMARK  status: ('A' for Active; 'I' for Inactive)
REMARK    1  A    between atoms: C1_2  and  C2_3 
REMARK    2  A    between atoms: C2_3  and  C3_4 
ROOT
ATOM      1  C3  UNL d   1       1.567  -2.549   3.195  0.00  0.00    -0.075 A 
ATOM      2  C4  UNL d   1       2.009  -3.710   3.847  0.00  0.00     0.002 A 
ATOM      3  C5  UNL d   1       2.007  -3.783   5.240  0.00  0.00     0.002 A 
ATOM      4  C6  UNL d   1       1.575  -2.697   5.998  0.00  0.00    -0.004 A 
ATOM      5  C7  UNL d   1       1.149  -1.534   5.361  0.00  0.00     0.002 A 
ATOM      6  C8  UNL d   1       1.145  -1.459   3.967  0.00  0.00     0.002 A 
ENDROOT
BRANCH   1   7
ATOM      7  C2  UNL d   1       1.538  -2.474   1.687  0.00  0.00     0.056 C 
BRANCH   7   8
ATOM      8  C1  UNL d   1       2.297  -1.275   1.108  0.00  0.00     0.007 C 
ATOM      9  C   UNL d   1       3.312  -1.665   0.042  0.00  0.00     0.009 C 
ENDBRANCH   7   8
ENDBRANCH   1   7
TORSDOF 2
ENDMDL
