MODEL 1
REMARK minimizedAffinity 7.45198917
REMARK minimizedRMSD -1
REMARK  2 active torsions:
REMARK  status: ('A' for Active; 'I' for Inactive)
REMARK    1  A    between atoms: C1_2  and  C2_3 
REMARK    2  A    between atoms: C2_3  and  C3_4 
ROOT
ATOM      1  C3  UNL d   1       1.478  -1.606   2.358  0.00  0.00    -0.075 A 
ATOM      2  C4  UNL d   1       2.224  -2.577   1.674  0.00  0.00     0.002 A 
ATOM      3  C5  UNL d   1       2.772  -2.298   0.422  0.00  0.00     0.002 A 
ATOM      4  C6  UNL d   1       2.573  -1.050  -0.166  0.00  0.00    -0.004 A 
ATOM      5  C7  UNL d   1       1.819  -0.084   0.497  0.00  0.00     0.002 A 
ATOM      6  C8  UNL d   1       1.274  -0.359   1.752  0.00  0.00     0.002 A 
ENDROOT
BRANCH   1   7
ATOM      7  C2  UNL d   1       0.908  -1.892   3.727  0.00  0.00     0.056 C 
BRANCH   7   8
ATOM      8  C1  UNL d   1       1.843  -2.697   4.636  0.00  0.00     0.007 C 
ATOM      9  C   UNL d   1       1.236  -3.005   5.999  0.00  0.00     0.009 C 
ENDBRANCH   7   8
ENDBRANCH   1   7
TORSDOF 2
ENDMDL
