MODEL 1
REMARK minimizedAffinity -3.24999213
REMARK minimizedRMSD -1
REMARK  0 active torsions:
REMARK  status: ('A' for Active; 'I' for Inactive)
ROOT
ATOM      1  C   UNL d   1       2.290  -1.753   0.137  0.00  0.00     0.023 A 
ATOM      2  C1  UNL d   1       1.347  -1.909  -0.879  0.00  0.00     0.003 A 
ATOM      3  C2  UNL d   1       0.168  -1.162  -0.859  0.00  0.00     0.048 A 
ATOM      4  C3  UNL d   1      -0.061  -0.259   0.179  0.00  0.00     0.023 A 
ATOM      5  C4  UNL d   1       0.880  -0.099   1.197  0.00  0.00     0.048 A 
ATOM      6  C5  UNL d   1       2.057  -0.849   1.173  0.00  0.00     0.003 A 
ATOM      7  I   UNL d   1      -1.816   0.854   0.210  0.00  0.00    -0.146 I 
ENDROOT
TORSDOF 0
ENDMDL
