MODEL 1
REMARK minimizedAffinity -5.24443674
REMARK minimizedRMSD -1
REMARK  0 active torsions:
REMARK  status: ('A' for Active; 'I' for Inactive)
ROOT
ATOM      1  C   UNL d   1       3.288  -0.920   0.674  0.00  0.00     0.023 A 
ATOM      2  C1  UNL d   1       3.046   0.412   1.008  0.00  0.00     0.003 A 
ATOM      3  C2  UNL d   1       1.806   0.990   0.727  0.00  0.00     0.048 A 
ATOM      4  C3  UNL d   1       0.812   0.230   0.113  0.00  0.00     0.023 A 
ATOM      5  C4  UNL d   1       1.049  -1.104  -0.223  0.00  0.00     0.048 A 
ATOM      6  C5  UNL d   1       2.290  -1.678   0.059  0.00  0.00     0.003 A 
ATOM      7  I   UNL d   1      -1.034   1.087  -0.305  0.00  0.00    -0.146 I 
ENDROOT
TORSDOF 0
ENDMDL
