MODEL 1
REMARK minimizedAffinity 4.19343615
REMARK minimizedRMSD -1
REMARK  0 active torsions:
REMARK  status: ('A' for Active; 'I' for Inactive)
ROOT
ATOM      1  C   UNL d   1       2.189   1.247   0.462  0.00  0.00     0.023 A 
ATOM      2  C1  UNL d   1       1.675  -0.047   0.552  0.00  0.00     0.003 A 
ATOM      3  C2  UNL d   1       0.311  -0.272   0.358  0.00  0.00     0.048 A 
ATOM      4  C3  UNL d   1      -0.534   0.800   0.073  0.00  0.00     0.023 A 
ATOM      5  C4  UNL d   1      -0.024   2.096  -0.019  0.00  0.00     0.048 A 
ATOM      6  C5  UNL d   1       1.341   2.317   0.177  0.00  0.00     0.003 A 
ATOM      7  I   UNL d   1      -2.565   0.466  -0.216  0.00  0.00    -0.146 I 
ENDROOT
TORSDOF 0
ENDMDL
