MODEL 1
REMARK minimizedAffinity -2.03369331
REMARK minimizedRMSD -1
REMARK  0 active torsions:
REMARK  status: ('A' for Active; 'I' for Inactive)
ROOT
ATOM      1  C   UNL d   1      -2.121  -0.093  -0.258  0.00  0.00     0.023 A 
ATOM      2  C1  UNL d   1      -1.116  -0.971  -0.663  0.00  0.00     0.003 A 
ATOM      3  C2  UNL d   1       0.226  -0.632  -0.478  0.00  0.00     0.048 A 
ATOM      4  C3  UNL d   1       0.555   0.587   0.113  0.00  0.00     0.023 A 
ATOM      5  C4  UNL d   1      -0.447   1.468   0.522  0.00  0.00     0.048 A 
ATOM      6  C5  UNL d   1      -1.787   1.125   0.334  0.00  0.00     0.003 A 
ATOM      7  I   UNL d   1       2.552   1.095   0.390  0.00  0.00    -0.146 I 
ENDROOT
TORSDOF 0
ENDMDL
