MODEL 1
REMARK minimizedAffinity -2.86067629
REMARK minimizedRMSD -1
REMARK  0 active torsions:
REMARK  status: ('A' for Active; 'I' for Inactive)
ROOT
ATOM      1  C   UNL d   1       2.881  -1.202   0.779  0.00  0.00     0.023 A 
ATOM      2  C1  UNL d   1       2.319  -1.424  -0.478  0.00  0.00     0.003 A 
ATOM      3  C2  UNL d   1       1.006  -1.027  -0.737  0.00  0.00     0.048 A 
ATOM      4  C3  UNL d   1       0.260  -0.408   0.265  0.00  0.00     0.023 A 
ATOM      5  C4  UNL d   1       0.818  -0.184   1.525  0.00  0.00     0.048 A 
ATOM      6  C5  UNL d   1       2.131  -0.583   1.780  0.00  0.00     0.003 A 
ATOM      7  I   UNL d   1      -1.695   0.183  -0.119  0.00  0.00    -0.146 I 
ENDROOT
TORSDOF 0
ENDMDL
