MODEL 1
REMARK minimizedAffinity -2.00941849
REMARK minimizedRMSD -1
REMARK  0 active torsions:
REMARK  status: ('A' for Active; 'I' for Inactive)
ROOT
ATOM      1  C   UNL d   1       3.895   0.109  -0.541  0.00  0.00     0.023 A 
ATOM      2  C1  UNL d   1       3.245  -1.125  -0.536  0.00  0.00     0.003 A 
ATOM      3  C2  UNL d   1       1.855  -1.183  -0.420  0.00  0.00     0.048 A 
ATOM      4  C3  UNL d   1       1.121  -0.002  -0.310  0.00  0.00     0.023 A 
ATOM      5  C4  UNL d   1       1.767   1.235  -0.316  0.00  0.00     0.048 A 
ATOM      6  C5  UNL d   1       3.157   1.288  -0.431  0.00  0.00     0.003 A 
ATOM      7  I   UNL d   1      -0.949  -0.086  -0.137  0.00  0.00    -0.146 I 
ENDROOT
TORSDOF 0
ENDMDL
