MODEL 1
REMARK minimizedAffinity 3.00121307
REMARK minimizedRMSD -1
REMARK  0 active torsions:
REMARK  status: ('A' for Active; 'I' for Inactive)
ROOT
ATOM      1  O1  BZF d   1       0.340   1.055   0.316  0.00  0.00    -0.204 OA
ATOM      2  C2  BZF d   1      -0.916   1.273  -0.219  0.00  0.00     0.174 A 
ATOM      3  C3  BZF d   1      -1.307   0.219  -0.965  0.00  0.00    -0.012 A 
ATOM      4  C3A BZF d   1      -0.268  -0.754  -0.815  0.00  0.00    -0.107 A 
ATOM      5  C4  BZF d   1      -0.088  -2.017  -1.302  0.00  0.00     0.055 A 
ATOM      6  C5  BZF d   1       1.070  -2.672  -1.027  0.00  0.00    -0.016 A 
ATOM      7  C6  BZF d   1       2.071  -2.092  -0.275  0.00  0.00     0.022 A 
ATOM      8  C7  BZF d   1       1.936  -0.843   0.234  0.00  0.00     0.029 A 
ATOM      9  C7A BZF d   1       0.753  -0.192  -0.015  0.00  0.00     0.058 A 
ENDROOT
TORSDOF 0
ENDMDL
