MODEL 1
REMARK minimizedAffinity 0.546986699
REMARK minimizedRMSD -1
REMARK  0 active torsions:
REMARK  status: ('A' for Active; 'I' for Inactive)
ROOT
ATOM      1  O1  BZF d   1      -3.294  -0.607   1.493  0.00  0.00    -0.204 OA
ATOM      2  C2  BZF d   1      -3.953   0.604   1.411  0.00  0.00     0.174 A 
ATOM      3  C3  BZF d   1      -3.251   1.480   0.663  0.00  0.00    -0.012 A 
ATOM      4  C3A BZF d   1      -2.126   0.742   0.176  0.00  0.00    -0.107 A 
ATOM      5  C4  BZF d   1      -1.073   1.061  -0.633  0.00  0.00     0.055 A 
ATOM      6  C5  BZF d   1      -0.106   0.133  -0.855  0.00  0.00    -0.016 A 
ATOM      7  C6  BZF d   1      -0.157  -1.120  -0.281  0.00  0.00     0.022 A 
ATOM      8  C7  BZF d   1      -1.184  -1.484   0.525  0.00  0.00     0.029 A 
ATOM      9  C7A BZF d   1      -2.180  -0.560   0.725  0.00  0.00     0.058 A 
ENDROOT
TORSDOF 0
ENDMDL
