MODEL 1
REMARK minimizedAffinity -3.02520251
REMARK minimizedRMSD -1
REMARK  0 active torsions:
REMARK  status: ('A' for Active; 'I' for Inactive)
ROOT
ATOM      1  O1  BZF d   1      -1.903  -0.458  -0.278  0.00  0.00    -0.204 OA
ATOM      2  C2  BZF d   1      -2.131   0.875   0.004  0.00  0.00     0.174 A 
ATOM      3  C3  BZF d   1      -0.993   1.483   0.395  0.00  0.00    -0.012 A 
ATOM      4  C3A BZF d   1       0.028   0.489   0.267  0.00  0.00    -0.107 A 
ATOM      5  C4  BZF d   1       1.375   0.491   0.492  0.00  0.00     0.055 A 
ATOM      6  C5  BZF d   1       2.072  -0.665   0.341  0.00  0.00    -0.016 A 
ATOM      7  C6  BZF d   1       1.455  -1.842  -0.028  0.00  0.00     0.022 A 
ATOM      8  C7  BZF d   1       0.122  -1.893  -0.267  0.00  0.00     0.029 A 
ATOM      9  C7A BZF d   1      -0.580  -0.719  -0.147  0.00  0.00     0.058 A 
ENDROOT
TORSDOF 0
ENDMDL
