MODEL 1
REMARK minimizedAffinity -1.42760623
REMARK minimizedRMSD -1
REMARK  0 active torsions:
REMARK  status: ('A' for Active; 'I' for Inactive)
ROOT
ATOM      1  O1  BZF d   1      -0.019   1.502  -0.467  0.00  0.00    -0.204 OA
ATOM      2  C2  BZF d   1      -1.371   1.228  -0.390  0.00  0.00     0.174 A 
ATOM      3  C3  BZF d   1      -1.591  -0.102  -0.404  0.00  0.00    -0.012 A 
ATOM      4  C3A BZF d   1      -0.291  -0.699  -0.401  0.00  0.00    -0.107 A 
ATOM      5  C4  BZF d   1       0.149  -1.992  -0.395  0.00  0.00     0.055 A 
ATOM      6  C5  BZF d   1       1.483  -2.236  -0.468  0.00  0.00    -0.016 A 
ATOM      7  C6  BZF d   1       2.405  -1.213  -0.554  0.00  0.00     0.022 A 
ATOM      8  C7  BZF d   1       2.017   0.085  -0.558  0.00  0.00     0.029 A 
ATOM      9  C7A BZF d   1       0.671   0.336  -0.451  0.00  0.00     0.058 A 
ENDROOT
TORSDOF 0
ENDMDL
