MODEL 1
REMARK minimizedAffinity -2.98188329
REMARK minimizedRMSD -1
REMARK  0 active torsions:
REMARK  status: ('A' for Active; 'I' for Inactive)
ROOT
ATOM      1  O1  BZF d   1       0.050   1.417  -0.372  0.00  0.00    -0.204 OA
ATOM      2  C2  BZF d   1      -0.650   0.332  -0.863  0.00  0.00     0.174 A 
ATOM      3  C3  BZF d   1       0.127  -0.770  -0.880  0.00  0.00    -0.012 A 
ATOM      4  C3A BZF d   1       1.363  -0.369  -0.281  0.00  0.00    -0.107 A 
ATOM      5  C4  BZF d   1       2.527  -1.026  -0.001  0.00  0.00     0.055 A 
ATOM      6  C5  BZF d   1       3.570  -0.328   0.520  0.00  0.00    -0.016 A 
ATOM      7  C6  BZF d   1       3.485   1.026   0.769  0.00  0.00     0.022 A 
ATOM      8  C7  BZF d   1       2.350   1.720   0.512  0.00  0.00     0.029 A 
ATOM      9  C7A BZF d   1       1.283   1.011   0.016  0.00  0.00     0.058 A 
ENDROOT
TORSDOF 0
ENDMDL
