MODEL 1
REMARK minimizedAffinity -3.62965226
REMARK minimizedRMSD -1
REMARK  0 active torsions:
REMARK  status: ('A' for Active; 'I' for Inactive)
ROOT
ATOM      1  N1  IND d   1      -1.070   0.682  -4.716  0.00  0.00    -0.196 N 
ATOM      2  C2  IND d   1      -0.639   0.360  -5.973  0.00  0.00     0.054 A 
ATOM      3  C3  IND d   1      -0.171  -0.908  -6.000  0.00  0.00    -0.031 A 
ATOM      4  C4  IND d   1      -0.112  -2.670  -4.123  0.00  0.00     0.051 A 
ATOM      5  C5  IND d   1      -0.362  -2.831  -2.789  0.00  0.00    -0.031 A 
ATOM      6  C6  IND d   1      -0.874  -1.811  -2.014  0.00  0.00     0.015 A 
ATOM      7  C7  IND d   1      -1.166  -0.588  -2.550  0.00  0.00    -0.016 A 
ATOM      8  C8  IND d   1      -0.907  -0.418  -3.902  0.00  0.00    -0.047 A 
ATOM      9  C9  IND d   1      -0.348  -1.437  -4.684  0.00  0.00    -0.096 A 
ATOM     10  HN1 IND d   1      -1.389   1.443  -4.474  0.00  0.00     0.298 HD
ENDROOT
TORSDOF 0
ENDMDL
