MODEL 1
REMARK minimizedAffinity 0.245015249
REMARK minimizedRMSD -1
REMARK  0 active torsions:
REMARK  status: ('A' for Active; 'I' for Inactive)
ROOT
ATOM      1  N1  IND d   1      -4.740   0.933   1.729  0.00  0.00    -0.196 N 
ATOM      2  C2  IND d   1      -5.174   0.598   0.476  0.00  0.00     0.054 A 
ATOM      3  C3  IND d   1      -4.238  -0.136  -0.165  0.00  0.00    -0.031 A 
ATOM      4  C4  IND d   1      -1.963  -0.989   0.685  0.00  0.00     0.051 A 
ATOM      5  C5  IND d   1      -1.113  -0.909   1.753  0.00  0.00    -0.031 A 
ATOM      6  C6  IND d   1      -1.436  -0.198   2.891  0.00  0.00     0.015 A 
ATOM      7  C7  IND d   1      -2.632   0.452   3.009  0.00  0.00    -0.016 A 
ATOM      8  C8  IND d   1      -3.495   0.379   1.924  0.00  0.00    -0.047 A 
ATOM      9  C9  IND d   1      -3.154  -0.305   0.750  0.00  0.00    -0.096 A 
ATOM     10  HN1 IND d   1      -5.173   1.411   2.298  0.00  0.00     0.298 HD
ENDROOT
TORSDOF 0
ENDMDL
