MODEL 1
REMARK minimizedAffinity -1.11767304
REMARK minimizedRMSD -1
REMARK  0 active torsions:
REMARK  status: ('A' for Active; 'I' for Inactive)
ROOT
ATOM      1  N1  IND d   1       2.097   1.473  -4.829  0.00  0.00    -0.196 N 
ATOM      2  C2  IND d   1       2.948   0.728  -5.598  0.00  0.00     0.054 A 
ATOM      3  C3  IND d   1       2.346  -0.417  -5.992  0.00  0.00    -0.031 A 
ATOM      4  C4  IND d   1      -0.063  -1.224  -5.576  0.00  0.00     0.051 A 
ATOM      5  C5  IND d   1      -1.205  -0.903  -4.898  0.00  0.00    -0.031 A 
ATOM      6  C6  IND d   1      -1.307   0.251  -4.149  0.00  0.00     0.015 A 
ATOM      7  C7  IND d   1      -0.271   1.137  -4.059  0.00  0.00    -0.016 A 
ATOM      8  C8  IND d   1       0.893   0.810  -4.741  0.00  0.00    -0.047 A 
ATOM      9  C9  IND d   1       1.017  -0.381  -5.468  0.00  0.00    -0.096 A 
ATOM     10  HN1 IND d   1       2.284   2.227  -4.462  0.00  0.00     0.298 HD
ENDROOT
TORSDOF 0
ENDMDL
