MODEL 1
REMARK minimizedAffinity -0.51991564
REMARK minimizedRMSD -1
REMARK  0 active torsions:
REMARK  status: ('A' for Active; 'I' for Inactive)
ROOT
ATOM      1  N1  IND d   1      -5.279   0.661   1.301  0.00  0.00    -0.196 N 
ATOM      2  C2  IND d   1      -5.523   0.589  -0.043  0.00  0.00     0.054 A 
ATOM      3  C3  IND d   1      -4.413   0.185  -0.701  0.00  0.00    -0.031 A 
ATOM      4  C4  IND d   1      -2.118  -0.508   0.235  0.00  0.00     0.051 A 
ATOM      5  C5  IND d   1      -1.404  -0.573   1.398  0.00  0.00    -0.031 A 
ATOM      6  C6  IND d   1      -1.957  -0.225   2.614  0.00  0.00     0.015 A 
ATOM      7  C7  IND d   1      -3.254   0.192   2.713  0.00  0.00    -0.016 A 
ATOM      8  C8  IND d   1      -3.980   0.265   1.532  0.00  0.00    -0.047 A 
ATOM      9  C9  IND d   1      -3.411  -0.046   0.290  0.00  0.00    -0.096 A 
ATOM     10  HN1 IND d   1      -5.842   0.912   1.900  0.00  0.00     0.298 HD
ENDROOT
TORSDOF 0
ENDMDL
