MODEL 1
REMARK minimizedAffinity -1.40650845
REMARK minimizedRMSD -1
REMARK  0 active torsions:
REMARK  status: ('A' for Active; 'I' for Inactive)
ROOT
ATOM      1  N1  IND d   1      -0.689   0.586  -4.522  0.00  0.00    -0.196 N 
ATOM      2  C2  IND d   1      -0.555   0.282  -5.848  0.00  0.00     0.054 A 
ATOM      3  C3  IND d   1      -0.073  -0.972  -5.997  0.00  0.00    -0.031 A 
ATOM      4  C4  IND d   1       0.469  -2.740  -4.205  0.00  0.00     0.051 A 
ATOM      5  C5  IND d   1       0.541  -2.914  -2.852  0.00  0.00    -0.031 A 
ATOM      6  C6  IND d   1       0.197  -1.912  -1.968  0.00  0.00     0.015 A 
ATOM      7  C7  IND d   1      -0.244  -0.696  -2.406  0.00  0.00    -0.016 A 
ATOM      8  C8  IND d   1      -0.312  -0.513  -3.780  0.00  0.00    -0.047 A 
ATOM      9  C9  IND d   1       0.076  -1.512  -4.682  0.00  0.00    -0.096 A 
ATOM     10  HN1 IND d   1      -0.963   1.336  -4.204  0.00  0.00     0.298 HD
ENDROOT
TORSDOF 0
ENDMDL
