MODEL 1
REMARK minimizedAffinity 26.0993576
REMARK minimizedRMSD -1
REMARK  0 active torsions:
REMARK  status: ('A' for Active; 'I' for Inactive)
ROOT
ATOM      1  C   UNL d   1      -2.166  -0.237   1.870  0.00  0.00     0.124 A 
ATOM      2  C1  UNL d   1      -2.630  -1.545   1.891  0.00  0.00     0.062 A 
ATOM      3  C2  UNL d   1      -3.724  -1.912   1.113  0.00  0.00     0.162 A 
ATOM      4  C3  UNL d   1      -4.363  -0.969   0.307  0.00  0.00    -0.034 A 
ATOM      5  C4  UNL d   1      -3.891   0.345   0.292  0.00  0.00     0.162 A 
ATOM      6  C5  UNL d   1      -2.797   0.706   1.070  0.00  0.00     0.062 A 
ATOM      7  F   UNL d   1      -2.350   1.971   1.049  0.00  0.00    -0.097 F 
ATOM      8  F1  UNL d   1      -4.481   1.276  -0.472  0.00  0.00    -0.096 F 
ATOM      9  I   UNL d   1      -6.000  -1.514  -0.857  0.00  0.00    -0.060 I 
ATOM     10  F2  UNL d   1      -4.151  -3.183   1.153  0.00  0.00    -0.096 F 
ATOM     11  F3  UNL d   1      -2.023  -2.457   2.663  0.00  0.00    -0.097 F 
ATOM     12  F4  UNL d   1      -1.113   0.114   2.619  0.00  0.00    -0.092 F 
ENDROOT
TORSDOF 0
ENDMDL
