MODEL 1
REMARK minimizedAffinity 9.12795258
REMARK minimizedRMSD -1
REMARK  0 active torsions:
REMARK  status: ('A' for Active; 'I' for Inactive)
ROOT
ATOM      1  C   UNL d   1       0.806  -1.912  -1.198  0.00  0.00     0.124 A 
ATOM      2  C1  UNL d   1      -0.463  -1.395  -1.421  0.00  0.00     0.062 A 
ATOM      3  C2  UNL d   1      -0.890  -0.267  -0.728  0.00  0.00     0.162 A 
ATOM      4  C3  UNL d   1      -0.048   0.354   0.194  0.00  0.00    -0.034 A 
ATOM      5  C4  UNL d   1       1.226  -0.172   0.414  0.00  0.00     0.162 A 
ATOM      6  C5  UNL d   1       1.649  -1.301  -0.281  0.00  0.00     0.062 A 
ATOM      7  F   UNL d   1       2.875  -1.799  -0.065  0.00  0.00    -0.097 F 
ATOM      8  F1  UNL d   1       2.062   0.399   1.294  0.00  0.00    -0.096 F 
ATOM      9  I   UNL d   1      -0.683   2.042   1.233  0.00  0.00    -0.060 I 
ATOM     10  F2  UNL d   1      -2.121   0.211  -0.963  0.00  0.00    -0.096 F 
ATOM     11  F3  UNL d   1      -1.280  -1.985  -2.306  0.00  0.00    -0.097 F 
ATOM     12  F4  UNL d   1       1.214  -2.999  -1.866  0.00  0.00    -0.092 F 
ENDROOT
TORSDOF 0
ENDMDL
