MODEL 1
REMARK minimizedAffinity 7.99991369
REMARK minimizedRMSD -1
REMARK  0 active torsions:
REMARK  status: ('A' for Active; 'I' for Inactive)
ROOT
ATOM      1  C   UNL d   1      -4.848   0.853   1.251  0.00  0.00     0.124 A 
ATOM      2  C1  UNL d   1      -4.784   2.071   1.913  0.00  0.00     0.062 A 
ATOM      3  C2  UNL d   1      -3.592   2.788   1.947  0.00  0.00     0.162 A 
ATOM      4  C3  UNL d   1      -2.452   2.288   1.316  0.00  0.00    -0.034 A 
ATOM      5  C4  UNL d   1      -2.524   1.062   0.653  0.00  0.00     0.162 A 
ATOM      6  C5  UNL d   1      -3.718   0.350   0.622  0.00  0.00     0.062 A 
ATOM      7  F   UNL d   1      -3.778  -0.827  -0.019  0.00  0.00    -0.097 F 
ATOM      8  F1  UNL d   1      -1.447   0.552   0.036  0.00  0.00    -0.096 F 
ATOM      9  I   UNL d   1      -0.667   3.357   1.365  0.00  0.00    -0.060 I 
ATOM     10  F2  UNL d   1      -3.559   3.962   2.594  0.00  0.00    -0.096 F 
ATOM     11  F3  UNL d   1      -5.874   2.559   2.522  0.00  0.00    -0.097 F 
ATOM     12  F4  UNL d   1      -5.997   0.165   1.220  0.00  0.00    -0.092 F 
ENDROOT
TORSDOF 0
ENDMDL
