MODEL 1
REMARK minimizedAffinity 6.91333008
REMARK minimizedRMSD -1
REMARK  0 active torsions:
REMARK  status: ('A' for Active; 'I' for Inactive)
ROOT
ATOM      1  C   UNL d   1       2.645  -0.169   1.176  0.00  0.00     0.124 A 
ATOM      2  C1  UNL d   1       2.502  -1.145   0.200  0.00  0.00     0.062 A 
ATOM      3  C2  UNL d   1       1.454  -1.074  -0.713  0.00  0.00     0.162 A 
ATOM      4  C3  UNL d   1       0.539  -0.022  -0.654  0.00  0.00    -0.034 A 
ATOM      5  C4  UNL d   1       0.689   0.955   0.332  0.00  0.00     0.162 A 
ATOM      6  C5  UNL d   1       1.739   0.880   1.241  0.00  0.00     0.062 A 
ATOM      7  F   UNL d   1       1.875   1.824   2.184  0.00  0.00    -0.097 F 
ATOM      8  F1  UNL d   1      -0.172   1.980   0.417  0.00  0.00    -0.096 F 
ATOM      9  I   UNL d   1      -1.030   0.087  -2.016  0.00  0.00    -0.060 I 
ATOM     10  F2  UNL d   1       1.340  -2.031  -1.645  0.00  0.00    -0.096 F 
ATOM     11  F3  UNL d   1       3.376  -2.159   0.135  0.00  0.00    -0.097 F 
ATOM     12  F4  UNL d   1       3.655  -0.240   2.053  0.00  0.00    -0.092 F 
ENDROOT
TORSDOF 0
ENDMDL
