MODEL 1
REMARK minimizedAffinity 21.5976543
REMARK minimizedRMSD -1
REMARK  0 active torsions:
REMARK  status: ('A' for Active; 'I' for Inactive)
ROOT
ATOM      1  C   UNL d   1       1.803  -0.912  -0.134  0.00  0.00     0.124 A 
ATOM      2  C1  UNL d   1       0.625  -0.475  -0.724  0.00  0.00     0.062 A 
ATOM      3  C2  UNL d   1      -0.105   0.560  -0.146  0.00  0.00     0.162 A 
ATOM      4  C3  UNL d   1       0.341   1.166   1.028  0.00  0.00    -0.034 A 
ATOM      5  C4  UNL d   1       1.526   0.720   1.616  0.00  0.00     0.162 A 
ATOM      6  C5  UNL d   1       2.252  -0.314   1.035  0.00  0.00     0.062 A 
ATOM      7  F   UNL d   1       3.390  -0.735   1.607  0.00  0.00    -0.097 F 
ATOM      8  F1  UNL d   1       1.984   1.281   2.746  0.00  0.00    -0.096 F 
ATOM      9  I   UNL d   1      -0.748   2.713   1.895  0.00  0.00    -0.060 I 
ATOM     10  F2  UNL d   1      -1.239   0.962  -0.738  0.00  0.00    -0.096 F 
ATOM     11  F3  UNL d   1       0.189  -1.051  -1.853  0.00  0.00    -0.097 F 
ATOM     12  F4  UNL d   1       2.503  -1.908  -0.691  0.00  0.00    -0.092 F 
ENDROOT
TORSDOF 0
ENDMDL
