MODEL 1
REMARK minimizedAffinity 1.87346601
REMARK minimizedRMSD -1
REMARK  0 active torsions:
REMARK  status: ('A' for Active; 'I' for Inactive)
ROOT
ATOM      1  C   UNL d   1      -0.201  -2.210   5.998  0.00  0.00     0.124 A 
ATOM      2  C1  UNL d   1       1.168  -1.982   5.998  0.00  0.00     0.062 A 
ATOM      3  C2  UNL d   1       2.056  -3.054   5.998  0.00  0.00     0.162 A 
ATOM      4  C3  UNL d   1       1.577  -4.364   5.998  0.00  0.00    -0.034 A 
ATOM      5  C4  UNL d   1       0.199  -4.585   5.998  0.00  0.00     0.162 A 
ATOM      6  C5  UNL d   1      -0.684  -3.511   5.998  0.00  0.00     0.062 A 
ATOM      7  F   UNL d   1      -2.007  -3.733   5.998  0.00  0.00    -0.097 F 
ATOM      8  F1  UNL d   1      -0.295  -5.832   5.998  0.00  0.00    -0.096 F 
ATOM      9  I   UNL d   1       2.902  -5.970   5.998  0.00  0.00    -0.060 I 
ATOM     10  F2  UNL d   1       3.374  -2.804   5.999  0.00  0.00    -0.096 F 
ATOM     11  F3  UNL d   1       1.637  -0.726   5.999  0.00  0.00    -0.097 F 
ATOM     12  F4  UNL d   1      -1.053  -1.177   5.998  0.00  0.00    -0.092 F 
ENDROOT
TORSDOF 0
ENDMDL
