MODEL 1
REMARK minimizedAffinity 15.9269447
REMARK minimizedRMSD -1
REMARK  0 active torsions:
REMARK  status: ('A' for Active; 'I' for Inactive)
ROOT
ATOM      1  C   UNL d   1       0.661  -1.481  -0.456  0.00  0.00     0.124 A 
ATOM      2  C1  UNL d   1      -0.181  -1.906   0.562  0.00  0.00     0.062 A 
ATOM      3  C2  UNL d   1       0.067  -1.531   1.879  0.00  0.00     0.162 A 
ATOM      4  C3  UNL d   1       1.163  -0.724   2.186  0.00  0.00    -0.034 A 
ATOM      5  C4  UNL d   1       2.006  -0.301   1.157  0.00  0.00     0.162 A 
ATOM      6  C5  UNL d   1       1.754  -0.679  -0.158  0.00  0.00     0.062 A 
ATOM      7  F   UNL d   1       2.569  -0.267  -1.139  0.00  0.00    -0.097 F 
ATOM      8  F1  UNL d   1       3.069   0.475   1.417  0.00  0.00    -0.096 F 
ATOM      9  I   UNL d   1       1.537  -0.160   4.154  0.00  0.00    -0.060 I 
ATOM     10  F2  UNL d   1      -0.764  -1.956   2.842  0.00  0.00    -0.096 F 
ATOM     11  F3  UNL d   1      -1.237  -2.682   0.276  0.00  0.00    -0.097 F 
ATOM     12  F4  UNL d   1       0.421  -1.845  -1.722  0.00  0.00    -0.092 F 
ENDROOT
TORSDOF 0
ENDMDL
