MODEL 1
REMARK minimizedAffinity -1.4000181
REMARK minimizedRMSD -1
REMARK  0 active torsions:
REMARK  status: ('A' for Active; 'I' for Inactive)
ROOT
ATOM      1  C1  DEN d   1       0.611  -2.210   1.300  0.00  0.00     0.130 A 
ATOM      2  C2  DEN d   1       1.626  -2.584   2.281  0.00  0.00    -0.031 A 
ATOM      3  C3  DEN d   1       2.644  -1.516   2.314  0.00  0.00     0.027 A 
ATOM      4  C4  DEN d   1       2.745   0.674   0.954  0.00  0.00     0.027 A 
ATOM      5  C5  DEN d   1       2.113   1.425  -0.012  0.00  0.00    -0.003 A 
ATOM      6  C6  DEN d   1       0.963   1.005  -0.628  0.00  0.00     0.001 A 
ATOM      7  C7  DEN d   1       0.386  -0.179  -0.252  0.00  0.00     0.017 A 
ATOM      8  C8  DEN d   1       1.021  -0.945   0.716  0.00  0.00    -0.094 A 
ATOM      9  C9  DEN d   1       2.175  -0.498   1.336  0.00  0.00    -0.072 A 
ENDROOT
TORSDOF 0
ENDMDL
