MODEL 1
REMARK minimizedAffinity -5.60985851
REMARK minimizedRMSD -1
REMARK  0 active torsions:
REMARK  status: ('A' for Active; 'I' for Inactive)
ROOT
ATOM      1  C1  DEN d   1       1.971  -1.391   0.661  0.00  0.00     0.130 A 
ATOM      2  C2  DEN d   1       3.188  -0.623   0.910  0.00  0.00    -0.031 A 
ATOM      3  C3  DEN d   1       2.870   0.808   0.730  0.00  0.00     0.027 A 
ATOM      4  C4  DEN d   1       0.621   1.903   0.099  0.00  0.00     0.027 A 
ATOM      5  C5  DEN d   1      -0.695   1.659  -0.223  0.00  0.00    -0.003 A 
ATOM      6  C6  DEN d   1      -1.203   0.389  -0.305  0.00  0.00     0.001 A 
ATOM      7  C7  DEN d   1      -0.400  -0.683  -0.018  0.00  0.00     0.017 A 
ATOM      8  C8  DEN d   1       0.931  -0.445   0.300  0.00  0.00    -0.094 A 
ATOM      9  C9  DEN d   1       1.422   0.847   0.390  0.00  0.00    -0.072 A 
ENDROOT
TORSDOF 0
ENDMDL
