MODEL 1
REMARK minimizedAffinity -2.59155464
REMARK minimizedRMSD -1
REMARK  0 active torsions:
REMARK  status: ('A' for Active; 'I' for Inactive)
ROOT
ATOM      1  C1  DEN d   1       0.091   1.578   0.529  0.00  0.00     0.130 A 
ATOM      2  C2  DEN d   1      -1.014   0.735   0.080  0.00  0.00    -0.031 A 
ATOM      3  C3  DEN d   1      -0.492  -0.630  -0.129  0.00  0.00     0.027 A 
ATOM      4  C4  DEN d   1       1.907  -1.518   0.202  0.00  0.00     0.027 A 
ATOM      5  C5  DEN d   1       3.191  -1.174   0.561  0.00  0.00    -0.003 A 
ATOM      6  C6  DEN d   1       3.537   0.108   0.899  0.00  0.00     0.001 A 
ATOM      7  C7  DEN d   1       2.577   1.084   0.928  0.00  0.00     0.017 A 
ATOM      8  C8  DEN d   1       1.281   0.747   0.561  0.00  0.00    -0.094 A 
ATOM      9  C9  DEN d   1       0.949  -0.557   0.234  0.00  0.00    -0.072 A 
ENDROOT
TORSDOF 0
ENDMDL
