MODEL 1
REMARK minimizedAffinity -6.26396513
REMARK minimizedRMSD -1
REMARK  0 active torsions:
REMARK  status: ('A' for Active; 'I' for Inactive)
ROOT
ATOM      1  C1  DEN d   1       1.727   1.061   0.009  0.00  0.00     0.130 A 
ATOM      2  C2  DEN d   1       2.966   0.380   0.371  0.00  0.00    -0.031 A 
ATOM      3  C3  DEN d   1       2.613  -0.927   0.961  0.00  0.00     0.027 A 
ATOM      4  C4  DEN d   1       0.280  -1.958   1.343  0.00  0.00     0.027 A 
ATOM      5  C5  DEN d   1      -1.075  -1.750   1.207  0.00  0.00    -0.003 A 
ATOM      6  C6  DEN d   1      -1.588  -0.586   0.698  0.00  0.00     0.001 A 
ATOM      7  C7  DEN d   1      -0.739   0.397   0.264  0.00  0.00     0.017 A 
ATOM      8  C8  DEN d   1       0.628   0.198   0.404  0.00  0.00    -0.094 A 
ATOM      9  C9  DEN d   1       1.127  -0.991   0.910  0.00  0.00    -0.072 A 
ENDROOT
TORSDOF 0
ENDMDL
