MODEL 1
REMARK minimizedAffinity -2.6506784
REMARK minimizedRMSD -1
REMARK  0 active torsions:
REMARK  status: ('A' for Active; 'I' for Inactive)
ROOT
ATOM      1  C1  DEN d   1       2.814   0.530   1.003  0.00  0.00     0.130 A 
ATOM      2  C2  DEN d   1       3.309  -0.842   1.085  0.00  0.00    -0.031 A 
ATOM      3  C3  DEN d   1       2.260  -1.738   0.559  0.00  0.00     0.027 A 
ATOM      4  C4  DEN d   1      -0.069  -1.139  -0.373  0.00  0.00     0.027 A 
ATOM      5  C5  DEN d   1      -0.942  -0.106  -0.633  0.00  0.00    -0.003 A 
ATOM      6  C6  DEN d   1      -0.641   1.197  -0.337  0.00  0.00     0.001 A 
ATOM      7  C7  DEN d   1       0.583   1.507   0.196  0.00  0.00     0.017 A 
ATOM      8  C8  DEN d   1       1.466   0.470   0.467  0.00  0.00    -0.094 A 
ATOM      9  C9  DEN d   1       1.147  -0.840   0.150  0.00  0.00    -0.072 A 
ENDROOT
TORSDOF 0
ENDMDL
