MODEL 1
REMARK minimizedAffinity -3.80176926
REMARK minimizedRMSD -1
REMARK  0 active torsions:
REMARK  status: ('A' for Active; 'I' for Inactive)
ROOT
ATOM      1  C1  DEN d   1       2.433  -1.361   0.668  0.00  0.00     0.130 A 
ATOM      2  C2  DEN d   1       3.466  -0.336   0.791  0.00  0.00    -0.031 A 
ATOM      3  C3  DEN d   1       2.826   0.982   0.609  0.00  0.00     0.027 A 
ATOM      4  C4  DEN d   1       0.348   1.534   0.155  0.00  0.00     0.027 A 
ATOM      5  C5  DEN d   1      -0.904   0.995  -0.043  0.00  0.00    -0.003 A 
ATOM      6  C6  DEN d   1      -1.124  -0.357  -0.052  0.00  0.00     0.001 A 
ATOM      7  C7  DEN d   1      -0.083  -1.216   0.187  0.00  0.00     0.017 A 
ATOM      8  C8  DEN d   1       1.183  -0.680   0.380  0.00  0.00    -0.094 A 
ATOM      9  C9  DEN d   1       1.383   0.690   0.397  0.00  0.00    -0.072 A 
ENDROOT
TORSDOF 0
ENDMDL
