MODEL 1
REMARK minimizedAffinity -5.69712353
REMARK minimizedRMSD -1
REMARK  0 active torsions:
REMARK  status: ('A' for Active; 'I' for Inactive)
ROOT
ATOM      1  C1  DEN d   1       1.760   0.964   0.272  0.00  0.00     0.130 A 
ATOM      2  C2  DEN d   1       2.967   0.337   0.804  0.00  0.00    -0.031 A 
ATOM      3  C3  DEN d   1       2.573  -0.921   1.468  0.00  0.00     0.027 A 
ATOM      4  C4  DEN d   1       0.225  -1.958   1.717  0.00  0.00     0.027 A 
ATOM      5  C5  DEN d   1      -1.114  -1.787   1.440  0.00  0.00    -0.003 A 
ATOM      6  C6  DEN d   1      -1.588  -0.679   0.788  0.00  0.00     0.001 A 
ATOM      7  C7  DEN d   1      -0.712   0.280   0.353  0.00  0.00     0.017 A 
ATOM      8  C8  DEN d   1       0.638   0.117   0.636  0.00  0.00    -0.094 A 
ATOM      9  C9  DEN d   1       1.100  -1.016   1.284  0.00  0.00    -0.072 A 
ENDROOT
TORSDOF 0
ENDMDL
