MODEL 1
REMARK minimizedAffinity -4.9588728
REMARK minimizedRMSD -1
REMARK  0 active torsions:
REMARK  status: ('A' for Active; 'I' for Inactive)
ROOT
ATOM      1  C1  DEN d   1      -0.826  -0.371   0.015  0.00  0.00     0.130 A 
ATOM      2  C2  DEN d   1      -0.877   1.012  -0.450  0.00  0.00    -0.031 A 
ATOM      3  C3  DEN d   1       0.463   1.605  -0.268  0.00  0.00     0.027 A 
ATOM      4  C4  DEN d   1       2.602   0.520   0.681  0.00  0.00     0.027 A 
ATOM      5  C5  DEN d   1       3.133  -0.632   1.217  0.00  0.00    -0.003 A 
ATOM      6  C6  DEN d   1       2.380  -1.758   1.420  0.00  0.00     0.001 A 
ATOM      7  C7  DEN d   1       1.064  -1.771   1.042  0.00  0.00     0.017 A 
ATOM      8  C8  DEN d   1       0.519  -0.611   0.508  0.00  0.00    -0.094 A 
ATOM      9  C9  DEN d   1       1.300   0.514   0.299  0.00  0.00    -0.072 A 
ENDROOT
TORSDOF 0
ENDMDL
