MODEL 1
REMARK minimizedAffinity -4.35971737
REMARK minimizedRMSD -1
REMARK  0 active torsions:
REMARK  status: ('A' for Active; 'I' for Inactive)
ROOT
ATOM      1  C1  DEN d   1       3.105  -1.103   1.553  0.00  0.00     0.130 A 
ATOM      2  C2  DEN d   1       2.244  -2.212   1.956  0.00  0.00    -0.031 A 
ATOM      3  C3  DEN d   1       0.865  -1.896   1.534  0.00  0.00     0.027 A 
ATOM      4  C4  DEN d   1      -0.017   0.191   0.300  0.00  0.00     0.027 A 
ATOM      5  C5  DEN d   1       0.336   1.407  -0.241  0.00  0.00    -0.003 A 
ATOM      6  C6  DEN d   1       1.619   1.884  -0.192  0.00  0.00     0.001 A 
ATOM      7  C7  DEN d   1       2.606   1.119   0.371  0.00  0.00     0.017 A 
ATOM      8  C8  DEN d   1       2.257  -0.106   0.925  0.00  0.00    -0.094 A 
ATOM      9  C9  DEN d   1       0.957  -0.575   0.855  0.00  0.00    -0.072 A 
ENDROOT
TORSDOF 0
ENDMDL
