MODEL 1
REMARK minimizedAffinity 26.8557701
REMARK minimizedRMSD -1
REMARK  0 active torsions:
REMARK  status: ('A' for Active; 'I' for Inactive)
ROOT
ATOM      1  C   UNL d   1      -4.344   0.149  -3.212  0.00  0.00     0.124 A 
ATOM      2  C1  UNL d   1      -5.111   0.773  -4.185  0.00  0.00     0.062 A 
ATOM      3  C2  UNL d   1      -4.962   2.136  -4.427  0.00  0.00     0.162 A 
ATOM      4  C3  UNL d   1      -4.040   2.884  -3.694  0.00  0.00    -0.034 A 
ATOM      5  C4  UNL d   1      -3.272   2.249  -2.716  0.00  0.00     0.162 A 
ATOM      6  C5  UNL d   1      -3.425   0.887  -2.478  0.00  0.00     0.062 A 
ATOM      7  F   UNL d   1      -2.683   0.285  -1.538  0.00  0.00    -0.097 F 
ATOM      8  F1  UNL d   1      -2.376   2.938  -1.994  0.00  0.00    -0.096 F 
ATOM      9  I   UNL d   1      -3.814   4.921  -4.053  0.00  0.00    -0.060 I 
ATOM     10  F2  UNL d   1      -5.717   2.713  -5.373  0.00  0.00    -0.096 F 
ATOM     11  F3  UNL d   1      -6.000   0.063  -4.894  0.00  0.00    -0.097 F 
ATOM     12  F4  UNL d   1      -4.490  -1.162  -2.980  0.00  0.00    -0.092 F 
ENDROOT
TORSDOF 0
ENDMDL
