MODEL 1
REMARK minimizedAffinity 13.1768599
REMARK minimizedRMSD -1
REMARK  0 active torsions:
REMARK  status: ('A' for Active; 'I' for Inactive)
ROOT
ATOM      1  C   UNL d   1       1.759  -1.456   2.475  0.00  0.00     0.124 A 
ATOM      2  C1  UNL d   1       1.564  -1.801   1.144  0.00  0.00     0.062 A 
ATOM      3  C2  UNL d   1       2.390  -2.742   0.537  0.00  0.00     0.162 A 
ATOM      4  C3  UNL d   1       3.419  -3.346   1.259  0.00  0.00    -0.034 A 
ATOM      5  C4  UNL d   1       3.610  -2.994   2.596  0.00  0.00     0.162 A 
ATOM      6  C5  UNL d   1       2.781  -2.052   3.199  0.00  0.00     0.062 A 
ATOM      7  F   UNL d   1       2.971  -1.721   4.484  0.00  0.00    -0.097 F 
ATOM      8  F1  UNL d   1       4.589  -3.555   3.320  0.00  0.00    -0.096 F 
ATOM      9  I   UNL d   1       4.656  -4.754   0.354  0.00  0.00    -0.060 I 
ATOM     10  F2  UNL d   1       2.178  -3.056  -0.750  0.00  0.00    -0.096 F 
ATOM     11  F3  UNL d   1       0.577  -1.225   0.442  0.00  0.00    -0.097 F 
ATOM     12  F4  UNL d   1       0.963  -0.550   3.056  0.00  0.00    -0.092 F 
ENDROOT
TORSDOF 0
ENDMDL
