MODEL 1
REMARK minimizedAffinity 23.7989292
REMARK minimizedRMSD -1
REMARK  0 active torsions:
REMARK  status: ('A' for Active; 'I' for Inactive)
ROOT
ATOM      1  C   UNL d   1       2.860  -3.135   2.217  0.00  0.00     0.124 A 
ATOM      2  C1  UNL d   1       2.492  -2.824   0.915  0.00  0.00     0.062 A 
ATOM      3  C2  UNL d   1       3.131  -3.438  -0.158  0.00  0.00     0.162 A 
ATOM      4  C3  UNL d   1       4.144  -4.371   0.066  0.00  0.00    -0.034 A 
ATOM      5  C4  UNL d   1       4.509  -4.677   1.378  0.00  0.00     0.162 A 
ATOM      6  C5  UNL d   1       3.868  -4.060   2.447  0.00  0.00     0.062 A 
ATOM      7  F   UNL d   1       4.225  -4.361   3.704  0.00  0.00    -0.097 F 
ATOM      8  F1  UNL d   1       5.480  -5.568   1.629  0.00  0.00    -0.096 F 
ATOM      9  I   UNL d   1       5.102  -5.291  -1.536  0.00  0.00    -0.060 I 
ATOM     10  F2  UNL d   1       2.755  -3.119  -1.405  0.00  0.00    -0.096 F 
ATOM     11  F3  UNL d   1       1.519  -1.930   0.690  0.00  0.00    -0.097 F 
ATOM     12  F4  UNL d   1       2.244  -2.541   3.248  0.00  0.00    -0.092 F 
ENDROOT
TORSDOF 0
ENDMDL
