MODEL 1
REMARK minimizedAffinity 20.6630306
REMARK minimizedRMSD -1
REMARK  0 active torsions:
REMARK  status: ('A' for Active; 'I' for Inactive)
ROOT
ATOM      1  C   UNL d   1       0.191  -2.279   1.989  0.00  0.00     0.124 A 
ATOM      2  C1  UNL d   1       1.366  -1.705   1.526  0.00  0.00     0.062 A 
ATOM      3  C2  UNL d   1       2.341  -2.494   0.923  0.00  0.00     0.162 A 
ATOM      4  C3  UNL d   1       2.144  -3.868   0.778  0.00  0.00    -0.034 A 
ATOM      5  C4  UNL d   1       0.959  -4.438   1.247  0.00  0.00     0.162 A 
ATOM      6  C5  UNL d   1      -0.012  -3.645   1.850  0.00  0.00     0.062 A 
ATOM      7  F   UNL d   1      -1.147  -4.202   2.296  0.00  0.00    -0.097 F 
ATOM      8  F1  UNL d   1       0.737  -5.755   1.124  0.00  0.00    -0.096 F 
ATOM      9  I   UNL d   1       3.599  -5.052  -0.123  0.00  0.00    -0.060 I 
ATOM     10  F2  UNL d   1       3.467  -1.912   0.485  0.00  0.00    -0.096 F 
ATOM     11  F3  UNL d   1       1.564  -0.386   1.661  0.00  0.00    -0.097 F 
ATOM     12  F4  UNL d   1      -0.745  -1.517   2.570  0.00  0.00    -0.092 F 
ENDROOT
TORSDOF 0
ENDMDL
