MODEL 1
REMARK minimizedAffinity 12.4885015
REMARK minimizedRMSD -1
REMARK  0 active torsions:
REMARK  status: ('A' for Active; 'I' for Inactive)
ROOT
ATOM      1  C   UNL d   1       2.526  -2.772   0.246  0.00  0.00     0.124 A 
ATOM      2  C1  UNL d   1       2.018  -2.045   1.314  0.00  0.00     0.062 A 
ATOM      3  C2  UNL d   1       2.646  -2.092   2.555  0.00  0.00     0.162 A 
ATOM      4  C3  UNL d   1       3.791  -2.869   2.735  0.00  0.00    -0.034 A 
ATOM      5  C4  UNL d   1       4.295  -3.598   1.657  0.00  0.00     0.162 A 
ATOM      6  C5  UNL d   1       3.664  -3.547   0.419  0.00  0.00     0.062 A 
ATOM      7  F   UNL d   1       4.156  -4.250  -0.612  0.00  0.00    -0.097 F 
ATOM      8  F1  UNL d   1       5.394  -4.354   1.796  0.00  0.00    -0.096 F 
ATOM      9  I   UNL d   1       4.733  -2.942   4.590  0.00  0.00    -0.060 I 
ATOM     10  F2  UNL d   1       2.133  -1.380   3.569  0.00  0.00    -0.096 F 
ATOM     11  F3  UNL d   1       0.918  -1.296   1.150  0.00  0.00    -0.097 F 
ATOM     12  F4  UNL d   1       1.919  -2.726  -0.946  0.00  0.00    -0.092 F 
ENDROOT
TORSDOF 0
ENDMDL
