MODEL 1
REMARK minimizedAffinity 7.91318321
REMARK minimizedRMSD -1
REMARK  0 active torsions:
REMARK  status: ('A' for Active; 'I' for Inactive)
ROOT
ATOM      1  C   UNL d   1       1.512  -2.088   1.626  0.00  0.00     0.124 A 
ATOM      2  C1  UNL d   1       2.522  -3.010   1.389  0.00  0.00     0.062 A 
ATOM      3  C2  UNL d   1       3.508  -3.230   2.346  0.00  0.00     0.162 A 
ATOM      4  C3  UNL d   1       3.488  -2.526   3.551  0.00  0.00    -0.034 A 
ATOM      5  C4  UNL d   1       2.470  -1.600   3.781  0.00  0.00     0.162 A 
ATOM      6  C5  UNL d   1       1.487  -1.384   2.821  0.00  0.00     0.062 A 
ATOM      7  F   UNL d   1       0.512  -0.492   3.052  0.00  0.00    -0.097 F 
ATOM      8  F1  UNL d   1       2.421  -0.906   4.928  0.00  0.00    -0.096 F 
ATOM      9  I   UNL d   1       4.961  -2.852   4.985  0.00  0.00    -0.060 I 
ATOM     10  F2  UNL d   1       4.472  -4.127   2.091  0.00  0.00    -0.096 F 
ATOM     11  F3  UNL d   1       2.549  -3.691   0.234  0.00  0.00    -0.097 F 
ATOM     12  F4  UNL d   1       0.565  -1.878   0.702  0.00  0.00    -0.092 F 
ENDROOT
TORSDOF 0
ENDMDL
