MODEL 1
REMARK minimizedAffinity 20.0565529
REMARK minimizedRMSD -1
REMARK  0 active torsions:
REMARK  status: ('A' for Active; 'I' for Inactive)
ROOT
ATOM      1  C   UNL d   1       1.214  -2.603   0.957  0.00  0.00     0.124 A 
ATOM      2  C1  UNL d   1       1.761  -3.831   0.612  0.00  0.00     0.062 A 
ATOM      3  C2  UNL d   1       3.127  -3.947   0.371  0.00  0.00     0.162 A 
ATOM      4  C3  UNL d   1       3.957  -2.830   0.476  0.00  0.00    -0.034 A 
ATOM      5  C4  UNL d   1       3.399  -1.598   0.823  0.00  0.00     0.162 A 
ATOM      6  C5  UNL d   1       2.033  -1.488   1.062  0.00  0.00     0.062 A 
ATOM      7  F   UNL d   1       1.507  -0.301   1.396  0.00  0.00    -0.097 F 
ATOM      8  F1  UNL d   1       4.168  -0.504   0.932  0.00  0.00    -0.096 F 
ATOM      9  I   UNL d   1       6.000  -2.998   0.117  0.00  0.00    -0.060 I 
ATOM     10  F2  UNL d   1       3.628  -5.146   0.039  0.00  0.00    -0.096 F 
ATOM     11  F3  UNL d   1       0.972  -4.910   0.508  0.00  0.00    -0.097 F 
ATOM     12  F4  UNL d   1      -0.101  -2.495   1.187  0.00  0.00    -0.092 F 
ENDROOT
TORSDOF 0
ENDMDL
