MODEL 1
REMARK minimizedAffinity 9.22050285
REMARK minimizedRMSD -1
REMARK  0 active torsions:
REMARK  status: ('A' for Active; 'I' for Inactive)
ROOT
ATOM      1  C   UNL d   1      -4.899  -1.144  -3.322  0.00  0.00     0.124 A 
ATOM      2  C1  UNL d   1      -4.992  -0.036  -4.153  0.00  0.00     0.062 A 
ATOM      3  C2  UNL d   1      -4.041   0.978  -4.076  0.00  0.00     0.162 A 
ATOM      4  C3  UNL d   1      -2.989   0.889  -3.165  0.00  0.00    -0.034 A 
ATOM      5  C4  UNL d   1      -2.903  -0.228  -2.332  0.00  0.00     0.162 A 
ATOM      6  C5  UNL d   1      -3.855  -1.239  -2.413  0.00  0.00     0.062 A 
ATOM      7  F   UNL d   1      -3.763  -2.309  -1.609  0.00  0.00    -0.097 F 
ATOM      8  F1  UNL d   1      -1.904  -0.346  -1.445  0.00  0.00    -0.096 F 
ATOM      9  I   UNL d   1      -1.566   2.403  -3.047  0.00  0.00    -0.060 I 
ATOM     10  F2  UNL d   1      -4.156   2.037  -4.891  0.00  0.00    -0.096 F 
ATOM     11  F3  UNL d   1      -6.000   0.059  -5.032  0.00  0.00    -0.097 F 
ATOM     12  F4  UNL d   1      -5.815  -2.118  -3.398  0.00  0.00    -0.092 F 
ENDROOT
TORSDOF 0
ENDMDL
