MODEL 1
REMARK minimizedAffinity 13.4201689
REMARK minimizedRMSD -1
REMARK  0 active torsions:
REMARK  status: ('A' for Active; 'I' for Inactive)
ROOT
ATOM      1  C   UNL d   1      -0.301  -3.600   1.571  0.00  0.00     0.124 A 
ATOM      2  C1  UNL d   1       0.092  -2.300   1.858  0.00  0.00     0.062 A 
ATOM      3  C2  UNL d   1       1.359  -1.855   1.492  0.00  0.00     0.162 A 
ATOM      4  C3  UNL d   1       2.243  -2.711   0.834  0.00  0.00    -0.034 A 
ATOM      5  C4  UNL d   1       1.841  -4.017   0.549  0.00  0.00     0.162 A 
ATOM      6  C5  UNL d   1       0.573  -4.457   0.917  0.00  0.00     0.062 A 
ATOM      7  F   UNL d   1       0.195  -5.713   0.639  0.00  0.00    -0.097 F 
ATOM      8  F1  UNL d   1       2.665  -4.866  -0.082  0.00  0.00    -0.096 F 
ATOM      9  I   UNL d   1       4.138  -2.050   0.285  0.00  0.00    -0.060 I 
ATOM     10  F2  UNL d   1       1.713  -0.594   1.782  0.00  0.00    -0.096 F 
ATOM     11  F3  UNL d   1      -0.750  -1.470   2.490  0.00  0.00    -0.097 F 
ATOM     12  F4  UNL d   1      -1.520  -4.025   1.925  0.00  0.00    -0.092 F 
ENDROOT
TORSDOF 0
ENDMDL
