MODEL 1
REMARK minimizedAffinity 30.3569069
REMARK minimizedRMSD -1
REMARK  0 active torsions:
REMARK  status: ('A' for Active; 'I' for Inactive)
ROOT
ATOM      1  C   UNL d   1      -4.479  -1.359  -2.673  0.00  0.00     0.124 A 
ATOM      2  C1  UNL d   1      -5.065  -0.626  -3.695  0.00  0.00     0.062 A 
ATOM      3  C2  UNL d   1      -4.685   0.695  -3.915  0.00  0.00     0.162 A 
ATOM      4  C3  UNL d   1      -3.714   1.292  -3.111  0.00  0.00    -0.034 A 
ATOM      5  C4  UNL d   1      -3.130   0.548  -2.084  0.00  0.00     0.162 A 
ATOM      6  C5  UNL d   1      -3.513  -0.772  -1.869  0.00  0.00     0.062 A 
ATOM      7  F   UNL d   1      -2.946  -1.480  -0.880  0.00  0.00    -0.097 F 
ATOM      8  F1  UNL d   1      -2.193   1.090  -1.292  0.00  0.00    -0.096 F 
ATOM      9  I   UNL d   1      -3.144   3.267  -3.436  0.00  0.00    -0.060 I 
ATOM     10  F2  UNL d   1      -5.268   1.381  -4.910  0.00  0.00    -0.096 F 
ATOM     11  F3  UNL d   1      -5.999  -1.190  -4.474  0.00  0.00    -0.097 F 
ATOM     12  F4  UNL d   1      -4.847  -2.630  -2.464  0.00  0.00    -0.092 F 
ENDROOT
TORSDOF 0
ENDMDL
