MODEL 1
REMARK minimizedAffinity 18.6644135
REMARK minimizedRMSD -1
REMARK  0 active torsions:
REMARK  status: ('A' for Active; 'I' for Inactive)
ROOT
ATOM      1  C   UNL d   1       2.452  -2.184   0.809  0.00  0.00     0.124 A 
ATOM      2  C1  UNL d   1       2.172  -3.529   1.005  0.00  0.00     0.062 A 
ATOM      3  C2  UNL d   1       3.183  -4.478   0.891  0.00  0.00     0.162 A 
ATOM      4  C3  UNL d   1       4.485  -4.086   0.579  0.00  0.00    -0.034 A 
ATOM      5  C4  UNL d   1       4.759  -2.732   0.382  0.00  0.00     0.162 A 
ATOM      6  C5  UNL d   1       3.745  -1.786   0.497  0.00  0.00     0.062 A 
ATOM      7  F   UNL d   1       4.018  -0.487   0.307  0.00  0.00    -0.097 F 
ATOM      8  F1  UNL d   1       6.000  -2.320   0.081  0.00  0.00    -0.096 F 
ATOM      9  I   UNL d   1       6.000  -5.503   0.407  0.00  0.00    -0.060 I 
ATOM     10  F2  UNL d   1       2.884  -5.771   1.086  0.00  0.00    -0.096 F 
ATOM     11  F3  UNL d   1       0.924  -3.915   1.305  0.00  0.00    -0.097 F 
ATOM     12  F4  UNL d   1       1.477  -1.272   0.918  0.00  0.00    -0.092 F 
ENDROOT
TORSDOF 0
ENDMDL
