MODEL 1
REMARK minimizedAffinity 16.2971821
REMARK minimizedRMSD -1
REMARK  3 active torsions:
REMARK  status: ('A' for Active; 'I' for Inactive)
REMARK    1  A    between atoms: C3'_2  and  C2'_3 
REMARK    2  A    between atoms: C2'_3  and  C1'_4 
REMARK    3  A    between atoms: C1'_4  and  C1_5 
ROOT
ATOM      1  C1  N4B d   1      -4.777   1.283   2.919  0.00  0.00    -0.075 A 
ATOM      2  C2  N4B d   1      -4.992   0.613   1.695  0.00  0.00     0.002 A 
ATOM      3  C3  N4B d   1      -3.922   0.173   0.955  0.00  0.00     0.002 A 
ATOM      4  C4  N4B d   1      -2.632   0.406   1.409  0.00  0.00    -0.004 A 
ATOM      5  C5  N4B d   1      -2.433   1.031   2.606  0.00  0.00     0.002 A 
ATOM      6  C6  N4B d   1      -3.500   1.476   3.361  0.00  0.00     0.002 A 
ENDROOT
BRANCH   1   7
ATOM      7  C1' N4B d   1      -5.913   1.858   3.720  0.00  0.00     0.057 C 
BRANCH   7   8
ATOM      8  C2' N4B d   1      -5.646   1.627   5.205  0.00  0.00     0.009 C 
BRANCH   8   9
ATOM      9  C3' N4B d   1      -5.701   2.920   6.000  0.00  0.00     0.004 C 
ATOM     10  C4' N4B d   1      -4.396   3.658   6.000  0.00  0.00     0.003 C 
ENDBRANCH   8   9
ENDBRANCH   7   8
ENDBRANCH   1   7
TORSDOF 3
ENDMDL
