MODEL 1
REMARK minimizedAffinity 0.0172287002
REMARK minimizedRMSD -1
REMARK  3 active torsions:
REMARK  status: ('A' for Active; 'I' for Inactive)
REMARK    1  A    between atoms: C3'_2  and  C2'_3 
REMARK    2  A    between atoms: C2'_3  and  C1'_4 
REMARK    3  A    between atoms: C1'_4  and  C1_5 
ROOT
ATOM      1  C1  N4B d   1       1.341  -3.430   1.100  0.00  0.00    -0.075 A 
ATOM      2  C2  N4B d   1       0.131  -3.434   1.828  0.00  0.00     0.002 A 
ATOM      3  C3  N4B d   1      -0.540  -2.257   2.051  0.00  0.00     0.002 A 
ATOM      4  C4  N4B d   1      -0.013  -1.066   1.573  0.00  0.00    -0.004 A 
ATOM      5  C5  N4B d   1       1.143  -1.074   0.849  0.00  0.00     0.002 A 
ATOM      6  C6  N4B d   1       1.826  -2.251   0.614  0.00  0.00     0.002 A 
ENDROOT
BRANCH   1   7
ATOM      7  C1' N4B d   1       2.154  -4.681   0.904  0.00  0.00     0.057 C 
BRANCH   7   8
ATOM      8  C2' N4B d   1       3.234  -4.418  -0.140  0.00  0.00     0.009 C 
BRANCH   8   9
ATOM      9  C3' N4B d   1       4.631  -4.516   0.449  0.00  0.00     0.004 C 
ATOM     10  C4' N4B d   1       5.326  -3.189   0.520  0.00  0.00     0.003 C 
ENDBRANCH   8   9
ENDBRANCH   7   8
ENDBRANCH   1   7
TORSDOF 3
ENDMDL
