MODEL 1
REMARK minimizedAffinity 1.53066361
REMARK minimizedRMSD -1
REMARK  3 active torsions:
REMARK  status: ('A' for Active; 'I' for Inactive)
REMARK    1  A    between atoms: C3'_2  and  C2'_3 
REMARK    2  A    between atoms: C2'_3  and  C1'_4 
REMARK    3  A    between atoms: C1'_4  and  C1_5 
ROOT
ATOM      1  C1  N4B d   1       1.187  -3.509   1.014  0.00  0.00    -0.075 A 
ATOM      2  C2  N4B d   1       0.156  -4.328   1.524  0.00  0.00     0.002 A 
ATOM      3  C3  N4B d   1      -0.873  -3.768   2.241  0.00  0.00     0.002 A 
ATOM      4  C4  N4B d   1      -0.883  -2.401   2.475  0.00  0.00    -0.004 A 
ATOM      5  C5  N4B d   1       0.104  -1.614   1.957  0.00  0.00     0.002 A 
ATOM      6  C6  N4B d   1       1.142  -2.162   1.231  0.00  0.00     0.002 A 
ENDROOT
BRANCH   1   7
ATOM      7  C1' N4B d   1       2.378  -4.085   0.298  0.00  0.00     0.057 C 
BRANCH   7   8
ATOM      8  C2' N4B d   1       3.222  -4.880   1.289  0.00  0.00     0.009 C 
BRANCH   8   9
ATOM      9  C3' N4B d   1       4.473  -5.450   0.642  0.00  0.00     0.004 C 
ATOM     10  C4' N4B d   1       5.520  -4.408   0.385  0.00  0.00     0.003 C 
ENDBRANCH   8   9
ENDBRANCH   7   8
ENDBRANCH   1   7
TORSDOF 3
ENDMDL
