MODEL 1
REMARK minimizedAffinity -5.24456215
REMARK minimizedRMSD -1
REMARK  0 active torsions:
REMARK  status: ('A' for Active; 'I' for Inactive)
ROOT
ATOM      1  C1  DEN d   1      -1.732   1.344   0.040  0.00  0.00     0.130 A 
ATOM      2  C2  DEN d   1      -1.144   2.654   0.308  0.00  0.00    -0.031 A 
ATOM      3  C3  DEN d   1       0.296   2.462   0.571  0.00  0.00     0.027 A 
ATOM      4  C4  DEN d   1       1.667   0.277   0.586  0.00  0.00     0.027 A 
ATOM      5  C5  DEN d   1       1.602  -1.089   0.426  0.00  0.00    -0.003 A 
ATOM      6  C6  DEN d   1       0.425  -1.739   0.162  0.00  0.00     0.001 A 
ATOM      7  C7  DEN d   1      -0.728  -1.017   0.006  0.00  0.00     0.017 A 
ATOM      8  C8  DEN d   1      -0.672   0.361   0.172  0.00  0.00    -0.094 A 
ATOM      9  C9  DEN d   1       0.529   1.000   0.426  0.00  0.00    -0.072 A 
ENDROOT
TORSDOF 0
ENDMDL
