MODEL 1
REMARK minimizedAffinity -0.721816063
REMARK minimizedRMSD -1
REMARK  0 active torsions:
REMARK  status: ('A' for Active; 'I' for Inactive)
ROOT
ATOM      1  C1  DEN d   1       1.732  -2.029   0.009  0.00  0.00     0.130 A 
ATOM      2  C2  DEN d   1       0.484  -2.715  -0.314  0.00  0.00    -0.031 A 
ATOM      3  C3  DEN d   1      -0.562  -1.691  -0.509  0.00  0.00     0.027 A 
ATOM      4  C4  DEN d   1      -0.371   0.876  -0.347  0.00  0.00     0.027 A 
ATOM      5  C5  DEN d   1       0.485   1.924  -0.087  0.00  0.00    -0.003 A 
ATOM      6  C6  DEN d   1       1.797   1.728   0.254  0.00  0.00     0.001 A 
ATOM      7  C7  DEN d   1       2.303   0.456   0.300  0.00  0.00     0.017 A 
ATOM      8  C8  DEN d   1       1.445  -0.606   0.046  0.00  0.00    -0.094 A 
ATOM      9  C9  DEN d   1       0.125  -0.387  -0.309  0.00  0.00    -0.072 A 
ENDROOT
TORSDOF 0
ENDMDL
