MODEL 1
REMARK minimizedAffinity -4.0542345
REMARK minimizedRMSD -1
REMARK  0 active torsions:
REMARK  status: ('A' for Active; 'I' for Inactive)
ROOT
ATOM      1  C1  DEN d   1       0.987  -0.977  -0.229  0.00  0.00     0.130 A 
ATOM      2  C2  DEN d   1      -0.059  -1.988  -0.110  0.00  0.00    -0.031 A 
ATOM      3  C3  DEN d   1      -1.339  -1.294   0.138  0.00  0.00     0.027 A 
ATOM      4  C4  DEN d   1      -1.800   1.235   0.342  0.00  0.00     0.027 A 
ATOM      5  C5  DEN d   1      -1.224   2.486   0.324  0.00  0.00    -0.003 A 
ATOM      6  C6  DEN d   1       0.123   2.668   0.155  0.00  0.00     0.001 A 
ATOM      7  C7  DEN d   1       0.934   1.582  -0.047  0.00  0.00     0.017 A 
ATOM      8  C8  DEN d   1       0.362   0.317  -0.023  0.00  0.00    -0.094 A 
ATOM      9  C9  DEN d   1      -1.004   0.155   0.137  0.00  0.00    -0.072 A 
ENDROOT
TORSDOF 0
ENDMDL
