MODEL 1
REMARK minimizedAffinity -4.06585503
REMARK minimizedRMSD -1
REMARK  0 active torsions:
REMARK  status: ('A' for Active; 'I' for Inactive)
ROOT
ATOM      1  C1  DEN d   1       1.350   3.418   1.780  0.00  0.00     0.130 A 
ATOM      2  C2  DEN d   1       2.703   2.871   1.716  0.00  0.00    -0.031 A 
ATOM      3  C3  DEN d   1       2.618   1.505   1.162  0.00  0.00     0.027 A 
ATOM      4  C4  DEN d   1       0.534   0.192   0.396  0.00  0.00     0.027 A 
ATOM      5  C5  DEN d   1      -0.837   0.236   0.270  0.00  0.00    -0.003 A 
ATOM      6  C6  DEN d   1      -1.572   1.321   0.666  0.00  0.00     0.001 A 
ATOM      7  C7  DEN d   1      -0.935   2.426   1.167  0.00  0.00     0.017 A 
ATOM      8  C8  DEN d   1       0.446   2.387   1.304  0.00  0.00    -0.094 A 
ATOM      9  C9  DEN d   1       1.173   1.285   0.886  0.00  0.00    -0.072 A 
ENDROOT
TORSDOF 0
ENDMDL
