MODEL 1
REMARK minimizedAffinity -5.39001369
REMARK minimizedRMSD -1
REMARK  0 active torsions:
REMARK  status: ('A' for Active; 'I' for Inactive)
ROOT
ATOM      1  C1  DEN d   1      -1.325  -0.062   1.068  0.00  0.00     0.130 A 
ATOM      2  C2  DEN d   1      -0.500  -1.231   0.777  0.00  0.00    -0.031 A 
ATOM      3  C3  DEN d   1       0.663  -0.784  -0.016  0.00  0.00     0.027 A 
ATOM      4  C4  DEN d   1       1.264   1.594  -0.814  0.00  0.00     0.027 A 
ATOM      5  C5  DEN d   1       0.861   2.911  -0.822  0.00  0.00    -0.003 A 
ATOM      6  C6  DEN d   1      -0.307   3.321  -0.235  0.00  0.00     0.001 A 
ATOM      7  C7  DEN d   1      -1.090   2.411   0.425  0.00  0.00     0.017 A 
ATOM      8  C8  DEN d   1      -0.694   1.080   0.431  0.00  0.00    -0.094 A 
ATOM      9  C9  DEN d   1       0.496   0.688  -0.158  0.00  0.00    -0.072 A 
ENDROOT
TORSDOF 0
ENDMDL
