MODEL 1
REMARK minimizedAffinity -5.83620834
REMARK minimizedRMSD -1
REMARK  0 active torsions:
REMARK  status: ('A' for Active; 'I' for Inactive)
ROOT
ATOM      1  C1  DEN d   1       0.588   2.476  -0.030  0.00  0.00     0.130 A 
ATOM      2  C2  DEN d   1      -0.870   2.543  -0.045  0.00  0.00    -0.031 A 
ATOM      3  C3  DEN d   1      -1.392   1.185   0.213  0.00  0.00     0.027 A 
ATOM      4  C4  DEN d   1      -0.089  -1.000   0.638  0.00  0.00     0.027 A 
ATOM      5  C5  DEN d   1       1.167  -1.557   0.735  0.00  0.00    -0.003 A 
ATOM      6  C6  DEN d   1       2.309  -0.822   0.552  0.00  0.00     0.001 A 
ATOM      7  C7  DEN d   1       2.218   0.523   0.306  0.00  0.00     0.017 A 
ATOM      8  C8  DEN d   1       0.955   1.090   0.199  0.00  0.00    -0.094 A 
ATOM      9  C9  DEN d   1      -0.187   0.333   0.400  0.00  0.00    -0.072 A 
ENDROOT
TORSDOF 0
ENDMDL
