MODEL 1
REMARK minimizedAffinity -5.05894566
REMARK minimizedRMSD -1
REMARK  0 active torsions:
REMARK  status: ('A' for Active; 'I' for Inactive)
ROOT
ATOM      1  C1  DEN d   1       1.035  -1.321  -0.579  0.00  0.00     0.130 A 
ATOM      2  C2  DEN d   1       0.030  -2.364  -0.397  0.00  0.00    -0.031 A 
ATOM      3  C3  DEN d   1      -1.257  -1.709  -0.088  0.00  0.00     0.027 A 
ATOM      4  C4  DEN d   1      -1.788   0.806   0.123  0.00  0.00     0.027 A 
ATOM      5  C5  DEN d   1      -1.254   2.074   0.066  0.00  0.00    -0.003 A 
ATOM      6  C6  DEN d   1       0.076   2.297  -0.174  0.00  0.00     0.001 A 
ATOM      7  C7  DEN d   1       0.909   1.236  -0.411  0.00  0.00     0.017 A 
ATOM      8  C8  DEN d   1       0.380  -0.046  -0.348  0.00  0.00    -0.094 A 
ATOM      9  C9  DEN d   1      -0.970  -0.250  -0.116  0.00  0.00    -0.072 A 
ENDROOT
TORSDOF 0
ENDMDL
