MODEL 1
REMARK minimizedAffinity -2.16592264
REMARK minimizedRMSD -1
REMARK  0 active torsions:
REMARK  status: ('A' for Active; 'I' for Inactive)
ROOT
ATOM      1  C1  DEN d   1       1.264   2.328  -0.039  0.00  0.00     0.130 A 
ATOM      2  C2  DEN d   1       0.261   3.349   0.251  0.00  0.00    -0.031 A 
ATOM      3  C3  DEN d   1      -1.017   2.666   0.537  0.00  0.00     0.027 A 
ATOM      4  C4  DEN d   1      -1.536   0.140   0.564  0.00  0.00     0.027 A 
ATOM      5  C5  DEN d   1      -1.007  -1.117   0.370  0.00  0.00    -0.003 A 
ATOM      6  C6  DEN d   1       0.296  -1.311  -0.004  0.00  0.00     0.001 A 
ATOM      7  C7  DEN d   1       1.127  -0.232  -0.152  0.00  0.00     0.017 A 
ATOM      8  C8  DEN d   1       0.599   1.039   0.035  0.00  0.00    -0.094 A 
ATOM      9  C9  DEN d   1      -0.718   1.213   0.425  0.00  0.00    -0.072 A 
ENDROOT
TORSDOF 0
ENDMDL
