MODEL 1
REMARK minimizedAffinity -5.79515839
REMARK minimizedRMSD -1
REMARK  0 active torsions:
REMARK  status: ('A' for Active; 'I' for Inactive)
ROOT
ATOM      1  C1  DEN d   1       1.168  -0.512  -1.092  0.00  0.00     0.130 A 
ATOM      2  C2  DEN d   1       0.360  -1.724  -0.996  0.00  0.00    -0.031 A 
ATOM      3  C3  DEN d   1      -0.931  -1.364  -0.377  0.00  0.00     0.027 A 
ATOM      4  C4  DEN d   1      -1.756   0.942   0.431  0.00  0.00     0.027 A 
ATOM      5  C5  DEN d   1      -1.418   2.270   0.568  0.00  0.00    -0.003 A 
ATOM      6  C6  DEN d   1      -0.192   2.754   0.196  0.00  0.00     0.001 A 
ATOM      7  C7  DEN d   1       0.726   1.911  -0.374  0.00  0.00     0.017 A 
ATOM      8  C8  DEN d   1       0.395   0.569  -0.509  0.00  0.00    -0.094 A 
ATOM      9  C9  DEN d   1      -0.855   0.102  -0.138  0.00  0.00    -0.072 A 
ENDROOT
TORSDOF 0
ENDMDL
