MODEL 1
REMARK minimizedAffinity -4.03264093
REMARK minimizedRMSD -1
REMARK  0 active torsions:
REMARK  status: ('A' for Active; 'I' for Inactive)
ROOT
ATOM      1  C1  DEN d   1       1.270  -0.858   0.243  0.00  0.00     0.130 A 
ATOM      2  C2  DEN d   1      -0.030  -1.488   0.035  0.00  0.00    -0.031 A 
ATOM      3  C3  DEN d   1      -1.056  -0.426   0.029  0.00  0.00     0.027 A 
ATOM      4  C4  DEN d   1      -0.758   2.120   0.315  0.00  0.00     0.027 A 
ATOM      5  C5  DEN d   1       0.158   3.125   0.530  0.00  0.00    -0.003 A 
ATOM      6  C6  DEN d   1       1.494   2.873   0.696  0.00  0.00     0.001 A 
ATOM      7  C7  DEN d   1       1.958   1.587   0.606  0.00  0.00     0.017 A 
ATOM      8  C8  DEN d   1       1.039   0.567   0.397  0.00  0.00    -0.094 A 
ATOM      9  C9  DEN d   1      -0.305   0.844   0.219  0.00  0.00    -0.072 A 
ENDROOT
TORSDOF 0
ENDMDL
