MODEL 1
REMARK minimizedAffinity -4.72813749
REMARK minimizedRMSD -1
REMARK  0 active torsions:
REMARK  status: ('A' for Active; 'I' for Inactive)
ROOT
ATOM      1  C1  DEN d   1       2.075  -0.161   0.181  0.00  0.00     0.130 A 
ATOM      2  C2  DEN d   1       1.413  -1.459   0.278  0.00  0.00    -0.031 A 
ATOM      3  C3  DEN d   1      -0.043  -1.225   0.341  0.00  0.00     0.027 A 
ATOM      4  C4  DEN d   1      -1.331   1.008   0.291  0.00  0.00     0.027 A 
ATOM      5  C5  DEN d   1      -1.201   2.378   0.228  0.00  0.00    -0.003 A 
ATOM      6  C6  DEN d   1       0.021   2.994   0.179  0.00  0.00     0.001 A 
ATOM      7  C7  DEN d   1       1.162   2.236   0.147  0.00  0.00     0.017 A 
ATOM      8  C8  DEN d   1       1.039   0.855   0.218  0.00  0.00    -0.094 A 
ATOM      9  C9  DEN d   1      -0.206   0.251   0.255  0.00  0.00    -0.072 A 
ENDROOT
TORSDOF 0
ENDMDL
