MODEL 1
REMARK minimizedAffinity -5.47318506
REMARK minimizedRMSD -1
REMARK  0 active torsions:
REMARK  status: ('A' for Active; 'I' for Inactive)
ROOT
ATOM      1  C1  DEN d   1      -1.876   2.305   0.060  0.00  0.00     0.130 A 
ATOM      2  C2  DEN d   1      -2.880   1.304   0.410  0.00  0.00    -0.031 A 
ATOM      3  C3  DEN d   1      -2.182   0.028   0.668  0.00  0.00     0.027 A 
ATOM      4  C4  DEN d   1       0.342  -0.490   0.565  0.00  0.00     0.027 A 
ATOM      5  C5  DEN d   1       1.587   0.038   0.301  0.00  0.00    -0.003 A 
ATOM      6  C6  DEN d   1       1.760   1.339  -0.091  0.00  0.00     0.001 A 
ATOM      7  C7  DEN d   1       0.674   2.169  -0.187  0.00  0.00     0.017 A 
ATOM      8  C8  DEN d   1      -0.585   1.642   0.070  0.00  0.00    -0.094 A 
ATOM      9  C9  DEN d   1      -0.738   0.327   0.477  0.00  0.00    -0.072 A 
ENDROOT
TORSDOF 0
ENDMDL
