MODEL 1
REMARK minimizedAffinity -4.04614353
REMARK minimizedRMSD -1
REMARK  0 active torsions:
REMARK  status: ('A' for Active; 'I' for Inactive)
ROOT
ATOM      1  C1  DEN d   1       1.351  -0.802   0.216  0.00  0.00     0.130 A 
ATOM      2  C2  DEN d   1       0.378  -1.881   0.073  0.00  0.00    -0.031 A 
ATOM      3  C3  DEN d   1      -0.973  -1.295   0.182  0.00  0.00     0.027 A 
ATOM      4  C4  DEN d   1      -1.649   1.167   0.553  0.00  0.00     0.027 A 
ATOM      5  C5  DEN d   1      -1.172   2.445   0.745  0.00  0.00    -0.003 A 
ATOM      6  C6  DEN d   1       0.167   2.723   0.808  0.00  0.00     0.001 A 
ATOM      7  C7  DEN d   1       1.079   1.716   0.632  0.00  0.00     0.017 A 
ATOM      8  C8  DEN d   1       0.606   0.423   0.445  0.00  0.00    -0.094 A 
ATOM      9  C9  DEN d   1      -0.752   0.164   0.372  0.00  0.00    -0.072 A 
ENDROOT
TORSDOF 0
ENDMDL
