MODEL 1
REMARK minimizedAffinity -4.91724443
REMARK minimizedRMSD -1
REMARK  0 active torsions:
REMARK  status: ('A' for Active; 'I' for Inactive)
ROOT
ATOM      1  N1  IND d   1       0.598  -0.395   0.367  0.00  0.00    -0.196 N 
ATOM      2  C2  IND d   1       0.502   0.525  -0.639  0.00  0.00     0.054 A 
ATOM      3  C3  IND d   1      -0.686   0.405  -1.275  0.00  0.00    -0.031 A 
ATOM      4  C4  IND d   1      -2.661  -1.165  -0.765  0.00  0.00     0.051 A 
ATOM      5  C5  IND d   1      -3.029  -2.209   0.037  0.00  0.00    -0.031 A 
ATOM      6  C6  IND d   1      -2.190  -2.710   1.012  0.00  0.00     0.015 A 
ATOM      7  C7  IND d   1      -0.951  -2.175   1.229  0.00  0.00    -0.016 A 
ATOM      8  C8  IND d   1      -0.572  -1.120   0.412  0.00  0.00    -0.047 A 
ATOM      9  C9  IND d   1      -1.403  -0.635  -0.607  0.00  0.00    -0.096 A 
ATOM     10  HN1 IND d   1       1.276  -0.502   0.885  0.00  0.00     0.298 HD
ENDROOT
TORSDOF 0
ENDMDL
