MODEL 1
REMARK minimizedAffinity -4.43503857
REMARK minimizedRMSD -1
REMARK  0 active torsions:
REMARK  status: ('A' for Active; 'I' for Inactive)
ROOT
ATOM      1  N1  IND d   1       0.845  -1.441   0.818  0.00  0.00    -0.196 N 
ATOM      2  C2  IND d   1       1.815  -0.529   0.507  0.00  0.00     0.054 A 
ATOM      3  C3  IND d   1       1.351   0.362  -0.398  0.00  0.00    -0.031 A 
ATOM      4  C4  IND d   1      -0.998   0.574  -1.429  0.00  0.00     0.051 A 
ATOM      5  C5  IND d   1      -2.212  -0.051  -1.480  0.00  0.00    -0.031 A 
ATOM      6  C6  IND d   1      -2.476  -1.193  -0.750  0.00  0.00     0.015 A 
ATOM      7  C7  IND d   1      -1.534  -1.748   0.069  0.00  0.00    -0.016 A 
ATOM      8  C8  IND d   1      -0.298  -1.120   0.118  0.00  0.00    -0.047 A 
ATOM      9  C9  IND d   1      -0.011   0.014  -0.652  0.00  0.00    -0.096 A 
ATOM     10  HN1 IND d   1       0.933  -2.103   1.359  0.00  0.00     0.298 HD
ENDROOT
TORSDOF 0
ENDMDL
