MODEL 1
REMARK minimizedAffinity -4.58536243
REMARK minimizedRMSD -1
REMARK  0 active torsions:
REMARK  status: ('A' for Active; 'I' for Inactive)
ROOT
ATOM      1  N1  IND d   1      -0.469  -2.535   1.497  0.00  0.00    -0.196 N 
ATOM      2  C2  IND d   1      -1.647  -3.194   1.284  0.00  0.00     0.054 A 
ATOM      3  C3  IND d   1      -2.381  -2.554   0.346  0.00  0.00    -0.031 A 
ATOM      4  C4  IND d   1      -1.797  -0.466  -1.043  0.00  0.00     0.051 A 
ATOM      5  C5  IND d   1      -0.846   0.507  -1.178  0.00  0.00    -0.031 A 
ATOM      6  C6  IND d   1       0.304   0.513  -0.415  0.00  0.00     0.015 A 
ATOM      7  C7  IND d   1       0.552  -0.463   0.508  0.00  0.00    -0.016 A 
ATOM      8  C8  IND d   1      -0.415  -1.448   0.653  0.00  0.00    -0.047 A 
ATOM      9  C9  IND d   1      -1.603  -1.437  -0.088  0.00  0.00    -0.096 A 
ATOM     10  HN1 IND d   1       0.137  -2.762   2.064  0.00  0.00     0.298 HD
ENDROOT
TORSDOF 0
ENDMDL
