MODEL 1
REMARK minimizedAffinity -4.37659025
REMARK minimizedRMSD -1
REMARK  0 active torsions:
REMARK  status: ('A' for Active; 'I' for Inactive)
ROOT
ATOM      1  N1  IND d   1      -0.319  -2.431   1.481  0.00  0.00    -0.196 N 
ATOM      2  C2  IND d   1      -1.304  -3.377   1.416  0.00  0.00     0.054 A 
ATOM      3  C3  IND d   1      -2.179  -3.077   0.430  0.00  0.00    -0.031 A 
ATOM      4  C4  IND d   1      -2.133  -1.140  -1.265  0.00  0.00     0.051 A 
ATOM      5  C5  IND d   1      -1.449   0.001  -1.578  0.00  0.00    -0.031 A 
ATOM      6  C6  IND d   1      -0.329   0.396  -0.875  0.00  0.00     0.015 A 
ATOM      7  C7  IND d   1       0.158  -0.345   0.165  0.00  0.00    -0.016 A 
ATOM      8  C8  IND d   1      -0.539  -1.500   0.490  0.00  0.00    -0.047 A 
ATOM      9  C9  IND d   1      -1.701  -1.883  -0.192  0.00  0.00    -0.096 A 
ATOM     10  HN1 IND d   1       0.329  -2.420   2.047  0.00  0.00     0.298 HD
ENDROOT
TORSDOF 0
ENDMDL
