MODEL 1
REMARK minimizedAffinity -0.289304733
REMARK minimizedRMSD -1
REMARK  0 active torsions:
REMARK  status: ('A' for Active; 'I' for Inactive)
ROOT
ATOM      1  N1  IND d   1      -4.006   3.781   3.419  0.00  0.00    -0.196 N 
ATOM      2  C2  IND d   1      -3.700   4.961   4.037  0.00  0.00     0.054 A 
ATOM      3  C3  IND d   1      -3.896   5.998   3.193  0.00  0.00    -0.031 A 
ATOM      4  C4  IND d   1      -4.813   5.999   0.788  0.00  0.00     0.051 A 
ATOM      5  C5  IND d   1      -5.199   5.158  -0.218  0.00  0.00    -0.031 A 
ATOM      6  C6  IND d   1      -5.209   3.788  -0.059  0.00  0.00     0.015 A 
ATOM      7  C7  IND d   1      -4.844   3.205   1.121  0.00  0.00    -0.016 A 
ATOM      8  C8  IND d   1      -4.445   4.055   2.143  0.00  0.00    -0.047 A 
ATOM      9  C9  IND d   1      -4.392   5.445   1.973  0.00  0.00    -0.096 A 
ATOM     10  HN1 IND d   1      -3.937   2.998   3.769  0.00  0.00     0.298 HD
ENDROOT
TORSDOF 0
ENDMDL
