MODEL 1
REMARK minimizedAffinity 2.01679039
REMARK minimizedRMSD -1
REMARK  0 active torsions:
REMARK  status: ('A' for Active; 'I' for Inactive)
ROOT
ATOM      1  N1  IND d   1       0.467  -0.481   0.656  0.00  0.00    -0.196 N 
ATOM      2  C2  IND d   1      -0.093  -0.373  -0.587  0.00  0.00     0.054 A 
ATOM      3  C3  IND d   1       0.050   0.885  -1.060  0.00  0.00    -0.031 A 
ATOM      4  C4  IND d   1       1.259   2.900  -0.008  0.00  0.00     0.051 A 
ATOM      5  C5  IND d   1       1.895   3.299   1.134  0.00  0.00    -0.031 A 
ATOM      6  C6  IND d   1       2.094   2.440   2.196  0.00  0.00     0.015 A 
ATOM      7  C7  IND d   1       1.672   1.141   2.150  0.00  0.00    -0.016 A 
ATOM      8  C8  IND d   1       1.020   0.735   0.994  0.00  0.00    -0.047 A 
ATOM      9  C9  IND d   1       0.778   1.614  -0.069  0.00  0.00    -0.096 A 
ATOM     10  HN1 IND d   1       0.473  -1.189   1.144  0.00  0.00     0.298 HD
ENDROOT
TORSDOF 0
ENDMDL
