MODEL 1
REMARK minimizedAffinity -1.97718203
REMARK minimizedRMSD -1
REMARK  0 active torsions:
REMARK  status: ('A' for Active; 'I' for Inactive)
ROOT
ATOM      1  N1  IND d   1      -0.101   0.885   0.924  0.00  0.00    -0.196 N 
ATOM      2  C2  IND d   1       0.210  -0.132   0.064  0.00  0.00     0.054 A 
ATOM      3  C3  IND d   1       1.445   0.052  -0.454  0.00  0.00    -0.031 A 
ATOM      4  C4  IND d   1       3.170   1.897   0.045  0.00  0.00     0.051 A 
ATOM      5  C5  IND d   1       3.328   3.066   0.735  0.00  0.00    -0.031 A 
ATOM      6  C6  IND d   1       2.332   3.576   1.542  0.00  0.00     0.015 A 
ATOM      7  C7  IND d   1       1.140   2.928   1.698  0.00  0.00    -0.016 A 
ATOM      8  C8  IND d   1       0.973   1.744   0.993  0.00  0.00    -0.047 A 
ATOM      9  C9  IND d   1       1.964   1.243   0.140  0.00  0.00    -0.096 A 
ATOM     10  HN1 IND d   1      -0.843   0.972   1.350  0.00  0.00     0.298 HD
ENDROOT
TORSDOF 0
ENDMDL
