MODEL 1
REMARK minimizedAffinity -2.72428083
REMARK minimizedRMSD -1
REMARK  0 active torsions:
REMARK  status: ('A' for Active; 'I' for Inactive)
ROOT
ATOM      1  N1  IND d   1      -0.194   0.538  -0.046  0.00  0.00    -0.196 N 
ATOM      2  C2  IND d   1       0.712  -0.381  -0.497  0.00  0.00     0.054 A 
ATOM      3  C3  IND d   1       1.969   0.007  -0.187  0.00  0.00    -0.031 A 
ATOM      4  C4  IND d   1       2.765   2.062   1.144  0.00  0.00     0.051 A 
ATOM      5  C5  IND d   1       2.308   3.209   1.731  0.00  0.00    -0.031 A 
ATOM      6  C6  IND d   1       0.966   3.529   1.758  0.00  0.00     0.015 A 
ATOM      7  C7  IND d   1       0.026   2.705   1.207  0.00  0.00    -0.016 A 
ATOM      8  C8  IND d   1       0.487   1.543   0.604  0.00  0.00    -0.047 A 
ATOM      9  C9  IND d   1       1.852   1.234   0.537  0.00  0.00    -0.096 A 
ATOM     10  HN1 IND d   1      -1.047   0.495  -0.151  0.00  0.00     0.298 HD
ENDROOT
TORSDOF 0
ENDMDL
