MODEL 1
REMARK minimizedAffinity -3.9942317
REMARK minimizedRMSD -1
REMARK  0 active torsions:
REMARK  status: ('A' for Active; 'I' for Inactive)
ROOT
ATOM      1  N1  IND d   1      -2.666  -0.584  -1.184  0.00  0.00    -0.196 N 
ATOM      2  C2  IND d   1      -3.493  -1.452  -0.528  0.00  0.00     0.054 A 
ATOM      3  C3  IND d   1      -2.879  -1.947   0.570  0.00  0.00    -0.031 A 
ATOM      4  C4  IND d   1      -0.559  -1.391   1.538  0.00  0.00     0.051 A 
ATOM      5  C5  IND d   1       0.578  -0.681   1.270  0.00  0.00    -0.031 A 
ATOM      6  C6  IND d   1       0.693   0.115   0.149  0.00  0.00     0.015 A 
ATOM      7  C7  IND d   1      -0.333   0.241  -0.744  0.00  0.00    -0.016 A 
ATOM      8  C8  IND d   1      -1.487  -0.483  -0.479  0.00  0.00    -0.047 A 
ATOM      9  C9  IND d   1      -1.594  -1.327   0.635  0.00  0.00    -0.096 A 
ATOM     10  HN1 IND d   1      -2.851  -0.170  -1.915  0.00  0.00     0.298 HD
ENDROOT
TORSDOF 0
ENDMDL
