MODEL 1
REMARK minimizedAffinity -0.0847517177
REMARK minimizedRMSD -1
REMARK  0 active torsions:
REMARK  status: ('A' for Active; 'I' for Inactive)
ROOT
ATOM      1  N1  IND d   1      -0.441   0.789   0.636  0.00  0.00    -0.196 N 
ATOM      2  C2  IND d   1      -0.296   0.121  -0.548  0.00  0.00     0.054 A 
ATOM      3  C3  IND d   1       0.961   0.272  -1.023  0.00  0.00    -0.031 A 
ATOM      4  C4  IND d   1       2.971   1.489   0.029  0.00  0.00     0.051 A 
ATOM      5  C5  IND d   1       3.317   2.280   1.088  0.00  0.00    -0.031 A 
ATOM      6  C6  IND d   1       2.411   2.620   2.072  0.00  0.00     0.015 A 
ATOM      7  C7  IND d   1       1.122   2.169   2.039  0.00  0.00    -0.016 A 
ATOM      8  C8  IND d   1       0.765   1.371   0.961  0.00  0.00    -0.047 A 
ATOM      9  C9  IND d   1       1.668   1.058  -0.062  0.00  0.00    -0.096 A 
ATOM     10  HN1 IND d   1      -1.164   0.838   1.099  0.00  0.00     0.298 HD
ENDROOT
TORSDOF 0
ENDMDL
