MODEL 1
REMARK minimizedAffinity -2.49175215
REMARK minimizedRMSD -1
REMARK  0 active torsions:
REMARK  status: ('A' for Active; 'I' for Inactive)
ROOT
ATOM      1  N1  IND d   1      -0.643   0.301   0.009  0.00  0.00    -0.196 N 
ATOM      2  C2  IND d   1      -0.366  -0.076  -1.276  0.00  0.00     0.054 A 
ATOM      3  C3  IND d   1       0.873   0.334  -1.629  0.00  0.00    -0.031 A 
ATOM      4  C4  IND d   1       2.656   1.550  -0.226  0.00  0.00     0.051 A 
ATOM      5  C5  IND d   1       2.852   2.137   0.992  0.00  0.00    -0.031 A 
ATOM      6  C6  IND d   1       1.874   2.140   1.966  0.00  0.00     0.015 A 
ATOM      7  C7  IND d   1       0.663   1.543   1.760  0.00  0.00    -0.016 A 
ATOM      8  C8  IND d   1       0.457   0.952   0.522  0.00  0.00    -0.047 A 
ATOM      9  C9  IND d   1       1.430   0.983  -0.486  0.00  0.00    -0.096 A 
ATOM     10  HN1 IND d   1      -1.381   0.157   0.426  0.00  0.00     0.298 HD
ENDROOT
TORSDOF 0
ENDMDL
