MODEL 1
REMARK minimizedAffinity -4.94031334
REMARK minimizedRMSD -1
REMARK  0 active torsions:
REMARK  status: ('A' for Active; 'I' for Inactive)
ROOT
ATOM      1  N1  IND d   1       0.021  -1.794   0.870  0.00  0.00    -0.196 N 
ATOM      2  C2  IND d   1       0.838  -0.840   0.331  0.00  0.00     0.054 A 
ATOM      3  C3  IND d   1       0.137  -0.032  -0.496  0.00  0.00    -0.031 A 
ATOM      4  C4  IND d   1      -2.381  -0.031  -1.033  0.00  0.00     0.051 A 
ATOM      5  C5  IND d   1      -3.530  -0.736  -0.809  0.00  0.00    -0.031 A 
ATOM      6  C6  IND d   1      -3.556  -1.850   0.004  0.00  0.00     0.015 A 
ATOM      7  C7  IND d   1      -2.430  -2.297   0.636  0.00  0.00    -0.016 A 
ATOM      8  C8  IND d   1      -1.259  -1.588   0.406  0.00  0.00    -0.047 A 
ATOM      9  C9  IND d   1      -1.219  -0.481  -0.453  0.00  0.00    -0.096 A 
ATOM     10  HN1 IND d   1       0.266  -2.418   1.408  0.00  0.00     0.298 HD
ENDROOT
TORSDOF 0
ENDMDL
