MODEL 1
REMARK minimizedAffinity -2.8398118
REMARK minimizedRMSD -1
REMARK  0 active torsions:
REMARK  status: ('A' for Active; 'I' for Inactive)
ROOT
ATOM      1  N1  IND d   1       0.587  -0.583   0.892  0.00  0.00    -0.196 N 
ATOM      2  C2  IND d   1       0.510   0.485   0.042  0.00  0.00     0.054 A 
ATOM      3  C3  IND d   1      -0.540   0.342  -0.799  0.00  0.00    -0.031 A 
ATOM      4  C4  IND d   1      -2.322  -1.514  -0.890  0.00  0.00     0.051 A 
ATOM      5  C5  IND d   1      -2.650  -2.720  -0.337  0.00  0.00    -0.031 A 
ATOM      6  C6  IND d   1      -1.902  -3.286   0.676  0.00  0.00     0.015 A 
ATOM      7  C7  IND d   1      -0.800  -2.658   1.183  0.00  0.00    -0.016 A 
ATOM      8  C8  IND d   1      -0.460  -1.436   0.620  0.00  0.00    -0.047 A 
ATOM      9  C9  IND d   1      -1.190  -0.877  -0.437  0.00  0.00    -0.096 A 
ATOM     10  HN1 IND d   1       1.188  -0.702   1.495  0.00  0.00     0.298 HD
ENDROOT
TORSDOF 0
ENDMDL
