MODEL 1
REMARK minimizedAffinity -1.03012073
REMARK minimizedRMSD -1
REMARK  0 active torsions:
REMARK  status: ('A' for Active; 'I' for Inactive)
ROOT
ATOM      1  N1  IND d   1       1.949   2.995  -0.042  0.00  0.00    -0.196 N 
ATOM      2  C2  IND d   1       3.032   3.366   0.706  0.00  0.00     0.054 A 
ATOM      3  C3  IND d   1       3.503   2.311   1.407  0.00  0.00    -0.031 A 
ATOM      4  C4  IND d   1       2.715  -0.140   1.402  0.00  0.00     0.051 A 
ATOM      5  C5  IND d   1       1.738  -0.956   0.905  0.00  0.00    -0.031 A 
ATOM      6  C6  IND d   1       0.763  -0.488   0.048  0.00  0.00     0.015 A 
ATOM      7  C7  IND d   1       0.736   0.817  -0.355  0.00  0.00    -0.016 A 
ATOM      8  C8  IND d   1       1.722   1.650   0.153  0.00  0.00    -0.047 A 
ATOM      9  C9  IND d   1       2.689   1.191   1.056  0.00  0.00    -0.096 A 
ATOM     10  HN1 IND d   1       1.487   3.514  -0.548  0.00  0.00     0.298 HD
ENDROOT
TORSDOF 0
ENDMDL
