MODEL 1
REMARK minimizedAffinity -1.60832453
REMARK minimizedRMSD -1
REMARK  0 active torsions:
REMARK  status: ('A' for Active; 'I' for Inactive)
ROOT
ATOM      1  N1  IND d   1       0.628  -0.679   1.260  0.00  0.00    -0.196 N 
ATOM      2  C2  IND d   1       0.817   0.441   0.501  0.00  0.00     0.054 A 
ATOM      3  C3  IND d   1      -0.154   0.545  -0.435  0.00  0.00    -0.031 A 
ATOM      4  C4  IND d   1      -2.208  -0.955  -0.833  0.00  0.00     0.051 A 
ATOM      5  C5  IND d   1      -2.789  -2.119  -0.415  0.00  0.00    -0.031 A 
ATOM      6  C6  IND d   1      -2.251  -2.877   0.605  0.00  0.00     0.015 A 
ATOM      7  C7  IND d   1      -1.114  -2.491   1.256  0.00  0.00    -0.016 A 
ATOM      8  C8  IND d   1      -0.517  -1.313   0.830  0.00  0.00    -0.047 A 
ATOM      9  C9  IND d   1      -1.035  -0.562  -0.234  0.00  0.00    -0.096 A 
ATOM     10  HN1 IND d   1       1.138  -0.944   1.900  0.00  0.00     0.298 HD
ENDROOT
TORSDOF 0
ENDMDL
