MODEL 1
REMARK minimizedAffinity -3.71272683
REMARK minimizedRMSD -1
REMARK  0 active torsions:
REMARK  status: ('A' for Active; 'I' for Inactive)
ROOT
ATOM      1  N1  IND d   1       0.756  -0.699   0.946  0.00  0.00    -0.196 N 
ATOM      2  C2  IND d   1       1.005   0.387   0.153  0.00  0.00     0.054 A 
ATOM      3  C3  IND d   1      -0.015   0.581  -0.713  0.00  0.00    -0.031 A 
ATOM      4  C4  IND d   1      -2.237  -0.701  -0.937  0.00  0.00     0.051 A 
ATOM      5  C5  IND d   1      -2.904  -1.793  -0.456  0.00  0.00    -0.031 A 
ATOM      6  C6  IND d   1      -2.375  -2.590   0.538  0.00  0.00     0.015 A 
ATOM      7  C7  IND d   1      -1.160  -2.318   1.100  0.00  0.00    -0.016 A 
ATOM      8  C8  IND d   1      -0.477  -1.214   0.609  0.00  0.00    -0.047 A 
ATOM      9  C9  IND d   1      -0.989  -0.426  -0.429  0.00  0.00    -0.096 A 
ATOM     10  HN1 IND d   1       1.281  -1.008   1.552  0.00  0.00     0.298 HD
ENDROOT
TORSDOF 0
ENDMDL
