MODEL 1
REMARK minimizedAffinity 14.8602247
REMARK minimizedRMSD -1
REMARK  0 active torsions:
REMARK  status: ('A' for Active; 'I' for Inactive)
ROOT
ATOM      1  C   UNL d   1      -0.715  -1.040   3.544  0.00  0.00     0.124 A 
ATOM      2  C1  UNL d   1       0.543  -0.656   3.099  0.00  0.00     0.062 A 
ATOM      3  C2  UNL d   1       0.675   0.079   1.924  0.00  0.00     0.162 A 
ATOM      4  C3  UNL d   1      -0.454   0.435   1.186  0.00  0.00    -0.034 A 
ATOM      5  C4  UNL d   1      -1.715   0.045   1.640  0.00  0.00     0.162 A 
ATOM      6  C5  UNL d   1      -1.842  -0.690   2.814  0.00  0.00     0.062 A 
ATOM      7  F   UNL d   1      -3.057  -1.060   3.243  0.00  0.00    -0.097 F 
ATOM      8  F1  UNL d   1      -2.821   0.370   0.954  0.00  0.00    -0.096 F 
ATOM      9  I   UNL d   1      -0.260   1.534  -0.571  0.00  0.00    -0.060 I 
ATOM     10  F2  UNL d   1       1.902   0.437   1.518  0.00  0.00    -0.096 F 
ATOM     11  F3  UNL d   1       1.633  -0.994   3.802  0.00  0.00    -0.097 F 
ATOM     12  F4  UNL d   1      -0.839  -1.747   4.674  0.00  0.00    -0.092 F 
ENDROOT
TORSDOF 0
ENDMDL
