MODEL 1
REMARK minimizedAffinity -0.693724871
REMARK minimizedRMSD -1
REMARK  0 active torsions:
REMARK  status: ('A' for Active; 'I' for Inactive)
ROOT
ATOM      1  C   UNL d   1       0.560   0.252   1.722  0.00  0.00     0.124 A 
ATOM      2  C1  UNL d   1      -0.137  -0.937   1.559  0.00  0.00     0.062 A 
ATOM      3  C2  UNL d   1      -0.379  -1.437   0.283  0.00  0.00     0.162 A 
ATOM      4  C3  UNL d   1       0.079  -0.749  -0.841  0.00  0.00    -0.034 A 
ATOM      5  C4  UNL d   1       0.779   0.446  -0.669  0.00  0.00     0.162 A 
ATOM      6  C5  UNL d   1       1.018   0.942   0.609  0.00  0.00     0.062 A 
ATOM      7  F   UNL d   1       1.692   2.091   0.765  0.00  0.00    -0.097 F 
ATOM      8  F1  UNL d   1       1.233   1.133  -1.728  0.00  0.00    -0.096 F 
ATOM      9  I   UNL d   1      -0.280  -1.493  -2.751  0.00  0.00    -0.060 I 
ATOM     10  F2  UNL d   1      -1.056  -2.588   0.154  0.00  0.00    -0.096 F 
ATOM     11  F3  UNL d   1      -0.581  -1.605   2.633  0.00  0.00    -0.097 F 
ATOM     12  F4  UNL d   1       0.791   0.731   2.951  0.00  0.00    -0.092 F 
ENDROOT
TORSDOF 0
ENDMDL
