MODEL 1
REMARK minimizedAffinity 13.8246651
REMARK minimizedRMSD -1
REMARK  0 active torsions:
REMARK  status: ('A' for Active; 'I' for Inactive)
ROOT
ATOM      1  C   UNL d   1      -0.178   0.654   2.102  0.00  0.00     0.124 A 
ATOM      2  C1  UNL d   1      -1.386  -0.028   2.062  0.00  0.00     0.062 A 
ATOM      3  C2  UNL d   1      -2.038  -0.224   0.848  0.00  0.00     0.162 A 
ATOM      4  C3  UNL d   1      -1.483   0.262  -0.336  0.00  0.00    -0.034 A 
ATOM      5  C4  UNL d   1      -0.268   0.948  -0.287  0.00  0.00     0.162 A 
ATOM      6  C5  UNL d   1       0.380   1.141   0.929  0.00  0.00     0.062 A 
ATOM      7  F   UNL d   1       1.547   1.801   0.966  0.00  0.00    -0.097 F 
ATOM      8  F1  UNL d   1       0.293   1.428  -1.406  0.00  0.00    -0.096 F 
ATOM      9  I   UNL d   1      -2.456  -0.029  -2.153  0.00  0.00    -0.060 I 
ATOM     10  F2  UNL d   1      -3.204  -0.887   0.838  0.00  0.00    -0.096 F 
ATOM     11  F3  UNL d   1      -1.927  -0.499   3.194  0.00  0.00    -0.097 F 
ATOM     12  F4  UNL d   1       0.447   0.842   3.272  0.00  0.00    -0.092 F 
ENDROOT
TORSDOF 0
ENDMDL
