MODEL 1
REMARK minimizedAffinity 14.6381626
REMARK minimizedRMSD -1
REMARK  0 active torsions:
REMARK  status: ('A' for Active; 'I' for Inactive)
ROOT
ATOM      1  C   UNL d   1      -2.791   0.315   0.795  0.00  0.00     0.124 A 
ATOM      2  C1  UNL d   1      -2.189   0.624  -0.417  0.00  0.00     0.062 A 
ATOM      3  C2  UNL d   1      -0.858   1.030  -0.453  0.00  0.00     0.162 A 
ATOM      4  C3  UNL d   1      -0.120   1.129   0.726  0.00  0.00    -0.034 A 
ATOM      5  C4  UNL d   1      -0.733   0.817   1.941  0.00  0.00     0.162 A 
ATOM      6  C5  UNL d   1      -2.063   0.412   1.972  0.00  0.00     0.062 A 
ATOM      7  F   UNL d   1      -2.643   0.114   3.144  0.00  0.00    -0.097 F 
ATOM      8  F1  UNL d   1      -0.052   0.902   3.094  0.00  0.00    -0.096 F 
ATOM      9  I   UNL d   1       1.870   1.736   0.676  0.00  0.00    -0.060 I 
ATOM     10  F2  UNL d   1      -0.301   1.323  -1.638  0.00  0.00    -0.096 F 
ATOM     11  F3  UNL d   1      -2.890   0.532  -1.555  0.00  0.00    -0.097 F 
ATOM     12  F4  UNL d   1      -4.072  -0.075   0.827  0.00  0.00    -0.092 F 
ENDROOT
TORSDOF 0
ENDMDL
