MODEL 1
REMARK minimizedAffinity 9.94738197
REMARK minimizedRMSD -1
REMARK  0 active torsions:
REMARK  status: ('A' for Active; 'I' for Inactive)
ROOT
ATOM      1  C   UNL d   1      -3.844   1.931   2.140  0.00  0.00     0.124 A 
ATOM      2  C1  UNL d   1      -2.707   2.593   2.583  0.00  0.00     0.062 A 
ATOM      3  C2  UNL d   1      -1.540   1.880   2.846  0.00  0.00     0.162 A 
ATOM      4  C3  UNL d   1      -1.504   0.498   2.665  0.00  0.00    -0.034 A 
ATOM      5  C4  UNL d   1      -2.652  -0.161   2.219  0.00  0.00     0.162 A 
ATOM      6  C5  UNL d   1      -3.815   0.556   1.958  0.00  0.00     0.062 A 
ATOM      7  F   UNL d   1      -4.913  -0.085   1.530  0.00  0.00    -0.097 F 
ATOM      8  F1  UNL d   1      -2.652  -1.489   2.034  0.00  0.00    -0.096 F 
ATOM      9  I   UNL d   1       0.238  -0.571   3.057  0.00  0.00    -0.060 I 
ATOM     10  F2  UNL d   1      -0.457   2.545   3.274  0.00  0.00    -0.096 F 
ATOM     11  F3  UNL d   1      -2.732   3.921   2.760  0.00  0.00    -0.097 F 
ATOM     12  F4  UNL d   1      -4.965   2.619   1.889  0.00  0.00    -0.092 F 
ENDROOT
TORSDOF 0
ENDMDL
