MODEL 1
REMARK minimizedAffinity 15.7473269
REMARK minimizedRMSD -1
REMARK  0 active torsions:
REMARK  status: ('A' for Active; 'I' for Inactive)
ROOT
ATOM      1  C   UNL d   1      -3.026   0.076   1.365  0.00  0.00     0.124 A 
ATOM      2  C1  UNL d   1      -2.598   0.409   0.087  0.00  0.00     0.062 A 
ATOM      3  C2  UNL d   1      -1.295   0.851  -0.122  0.00  0.00     0.162 A 
ATOM      4  C3  UNL d   1      -0.409   0.961   0.950  0.00  0.00    -0.034 A 
ATOM      5  C4  UNL d   1      -0.847   0.625   2.232  0.00  0.00     0.162 A 
ATOM      6  C5  UNL d   1      -2.151   0.184   2.436  0.00  0.00     0.062 A 
ATOM      7  F   UNL d   1      -2.562  -0.137   3.671  0.00  0.00    -0.097 F 
ATOM      8  F1  UNL d   1      -0.021   0.720   3.285  0.00  0.00    -0.096 F 
ATOM      9  I   UNL d   1       1.540   1.622   0.642  0.00  0.00    -0.060 I 
ATOM     10  F2  UNL d   1      -0.909   1.166  -1.367  0.00  0.00    -0.096 F 
ATOM     11  F3  UNL d   1      -3.443   0.306  -0.949  0.00  0.00    -0.097 F 
ATOM     12  F4  UNL d   1      -4.281  -0.349   1.563  0.00  0.00    -0.092 F 
ENDROOT
TORSDOF 0
ENDMDL
