MODEL 1
REMARK minimizedAffinity 12.9716463
REMARK minimizedRMSD -1
REMARK  0 active torsions:
REMARK  status: ('A' for Active; 'I' for Inactive)
ROOT
ATOM      1  C   UNL d   1      -3.232   0.292   2.558  0.00  0.00     0.124 A 
ATOM      2  C1  UNL d   1      -3.576   0.741   1.290  0.00  0.00     0.062 A 
ATOM      3  C2  UNL d   1      -2.945   0.216   0.167  0.00  0.00     0.162 A 
ATOM      4  C3  UNL d   1      -1.964  -0.766   0.305  0.00  0.00    -0.034 A 
ATOM      5  C4  UNL d   1      -1.623  -1.212   1.583  0.00  0.00     0.162 A 
ATOM      6  C5  UNL d   1      -2.257  -0.684   2.703  0.00  0.00     0.062 A 
ATOM      7  F   UNL d   1      -1.923  -1.119   3.927  0.00  0.00    -0.097 F 
ATOM      8  F1  UNL d   1      -0.684  -2.155   1.752  0.00  0.00    -0.096 F 
ATOM      9  I   UNL d   1      -1.018  -1.555  -1.373  0.00  0.00    -0.060 I 
ATOM     10  F2  UNL d   1      -3.297   0.668  -1.046  0.00  0.00    -0.096 F 
ATOM     11  F3  UNL d   1      -4.518   1.684   1.148  0.00  0.00    -0.097 F 
ATOM     12  F4  UNL d   1      -3.840   0.800   3.638  0.00  0.00    -0.092 F 
ENDROOT
TORSDOF 0
ENDMDL
