MODEL 1
REMARK minimizedAffinity 14.9304447
REMARK minimizedRMSD -1
REMARK  0 active torsions:
REMARK  status: ('A' for Active; 'I' for Inactive)
ROOT
ATOM      1  C   UNL d   1      -4.585   0.553   1.277  0.00  0.00     0.124 A 
ATOM      2  C1  UNL d   1      -4.293   1.881   1.557  0.00  0.00     0.062 A 
ATOM      3  C2  UNL d   1      -3.014   2.244   1.969  0.00  0.00     0.162 A 
ATOM      4  C3  UNL d   1      -2.017   1.278   2.103  0.00  0.00    -0.034 A 
ATOM      5  C4  UNL d   1      -2.319  -0.056   1.820  0.00  0.00     0.162 A 
ATOM      6  C5  UNL d   1      -3.599  -0.414   1.409  0.00  0.00     0.062 A 
ATOM      7  F   UNL d   1      -3.879  -1.697   1.138  0.00  0.00    -0.097 F 
ATOM      8  F1  UNL d   1      -1.384  -1.010   1.938  0.00  0.00    -0.096 F 
ATOM      9  I   UNL d   1      -0.103   1.816   2.718  0.00  0.00    -0.060 I 
ATOM     10  F2  UNL d   1      -2.759   3.534   2.233  0.00  0.00    -0.096 F 
ATOM     11  F3  UNL d   1      -5.245   2.816   1.432  0.00  0.00    -0.097 F 
ATOM     12  F4  UNL d   1      -5.817   0.206   0.882  0.00  0.00    -0.092 F 
ENDROOT
TORSDOF 0
ENDMDL
