MODEL 1
REMARK minimizedAffinity -2.57966661
REMARK minimizedRMSD -1
REMARK  0 active torsions:
REMARK  status: ('A' for Active; 'I' for Inactive)
ROOT
ATOM      1  C   UNL d   1      -1.303   0.637   1.177  0.00  0.00     0.124 A 
ATOM      2  C1  UNL d   1       0.072   0.453   1.234  0.00  0.00     0.062 A 
ATOM      3  C2  UNL d   1       0.827   0.453   0.065  0.00  0.00     0.162 A 
ATOM      4  C3  UNL d   1       0.210   0.638  -1.172  0.00  0.00    -0.034 A 
ATOM      5  C4  UNL d   1      -1.174   0.821  -1.221  0.00  0.00     0.162 A 
ATOM      6  C5  UNL d   1      -1.924   0.820  -0.050  0.00  0.00     0.062 A 
ATOM      7  F   UNL d   1      -3.252   0.998  -0.107  0.00  0.00    -0.097 F 
ATOM      8  F1  UNL d   1      -1.800   1.002  -2.394  0.00  0.00    -0.096 F 
ATOM      9  I   UNL d   1       1.335   0.638  -2.922  0.00  0.00    -0.060 I 
ATOM     10  F2  UNL d   1       2.154   0.273   0.150  0.00  0.00    -0.096 F 
ATOM     11  F3  UNL d   1       0.675   0.275   2.419  0.00  0.00    -0.097 F 
ATOM     12  F4  UNL d   1      -2.027   0.635   2.304  0.00  0.00    -0.092 F 
ENDROOT
TORSDOF 0
ENDMDL
