MODEL 1
REMARK minimizedAffinity 16.6131992
REMARK minimizedRMSD -1
REMARK  0 active torsions:
REMARK  status: ('A' for Active; 'I' for Inactive)
ROOT
ATOM      1  C   UNL d   1       0.897  -0.368   2.748  0.00  0.00     0.124 A 
ATOM      2  C1  UNL d   1       0.069  -1.337   2.201  0.00  0.00     0.062 A 
ATOM      3  C2  UNL d   1      -1.238  -1.020   1.841  0.00  0.00     0.162 A 
ATOM      4  C3  UNL d   1      -1.724   0.274   2.026  0.00  0.00    -0.034 A 
ATOM      5  C4  UNL d   1      -0.885   1.244   2.578  0.00  0.00     0.162 A 
ATOM      6  C5  UNL d   1       0.420   0.922   2.936  0.00  0.00     0.062 A 
ATOM      7  F   UNL d   1       1.219   1.860   3.465  0.00  0.00    -0.097 F 
ATOM      8  F1  UNL d   1      -1.321   2.498   2.770  0.00  0.00    -0.096 F 
ATOM      9  I   UNL d   1      -3.677   0.753   1.490  0.00  0.00    -0.060 I 
ATOM     10  F2  UNL d   1      -2.016  -1.977   1.315  0.00  0.00    -0.096 F 
ATOM     11  F3  UNL d   1       0.527  -2.584   2.019  0.00  0.00    -0.097 F 
ATOM     12  F4  UNL d   1       2.154  -0.676   3.094  0.00  0.00    -0.092 F 
ENDROOT
TORSDOF 0
ENDMDL
