MODEL 1
REMARK minimizedAffinity 5.94756079
REMARK minimizedRMSD -1
REMARK  0 active torsions:
REMARK  status: ('A' for Active; 'I' for Inactive)
ROOT
ATOM      1  C   UNL d   1      -0.003   0.900   3.077  0.00  0.00     0.124 A 
ATOM      2  C1  UNL d   1      -1.345   0.565   3.183  0.00  0.00     0.062 A 
ATOM      3  C2  UNL d   1      -2.018   0.017   2.095  0.00  0.00     0.162 A 
ATOM      4  C3  UNL d   1      -1.349  -0.201   0.891  0.00  0.00    -0.034 A 
ATOM      5  C4  UNL d   1       0.001   0.140   0.791  0.00  0.00     0.162 A 
ATOM      6  C5  UNL d   1       0.669   0.687   1.882  0.00  0.00     0.062 A 
ATOM      7  F   UNL d   1       1.966   1.011   1.777  0.00  0.00    -0.097 F 
ATOM      8  F1  UNL d   1       0.675  -0.056  -0.352  0.00  0.00    -0.096 F 
ATOM      9  I   UNL d   1      -2.351  -1.021  -0.738  0.00  0.00    -0.060 I 
ATOM     10  F2  UNL d   1      -3.315  -0.298   2.226  0.00  0.00    -0.096 F 
ATOM     11  F3  UNL d   1      -1.997   0.771   4.337  0.00  0.00    -0.097 F 
ATOM     12  F4  UNL d   1       0.642   1.429   4.125  0.00  0.00    -0.092 F 
ENDROOT
TORSDOF 0
ENDMDL
