MODEL 1
REMARK minimizedAffinity 7.48541069
REMARK minimizedRMSD -1
REMARK  0 active torsions:
REMARK  status: ('A' for Active; 'I' for Inactive)
ROOT
ATOM      1  C   UNL d   1       0.094   0.769   1.964  0.00  0.00     0.124 A 
ATOM      2  C1  UNL d   1      -0.809   0.705   0.911  0.00  0.00     0.062 A 
ATOM      3  C2  UNL d   1      -0.423   0.158  -0.309  0.00  0.00     0.162 A 
ATOM      4  C3  UNL d   1       0.872  -0.329  -0.484  0.00  0.00    -0.034 A 
ATOM      5  C4  UNL d   1       1.775  -0.260   0.579  0.00  0.00     0.162 A 
ATOM      6  C5  UNL d   1       1.384   0.287   1.797  0.00  0.00     0.062 A 
ATOM      7  F   UNL d   1       2.257   0.349   2.813  0.00  0.00    -0.097 F 
ATOM      8  F1  UNL d   1       3.028  -0.720   0.446  0.00  0.00    -0.096 F 
ATOM      9  I   UNL d   1       1.453  -1.147  -2.307  0.00  0.00    -0.060 I 
ATOM     10  F2  UNL d   1      -1.316   0.109  -1.309  0.00  0.00    -0.096 F 
ATOM     11  F3  UNL d   1      -2.056   1.171   1.070  0.00  0.00    -0.097 F 
ATOM     12  F4  UNL d   1      -0.280   1.297   3.137  0.00  0.00    -0.092 F 
ENDROOT
TORSDOF 0
ENDMDL
