MODEL 1
REMARK minimizedAffinity 0.78622514
REMARK minimizedRMSD -1
REMARK  0 active torsions:
REMARK  status: ('A' for Active; 'I' for Inactive)
ROOT
ATOM      1  C   UNL d   1       0.170   0.085   1.861  0.00  0.00     0.124 A 
ATOM      2  C1  UNL d   1       0.867   0.683   0.821  0.00  0.00     0.062 A 
ATOM      3  C2  UNL d   1       0.827   0.132  -0.457  0.00  0.00     0.162 A 
ATOM      4  C3  UNL d   1       0.087  -1.025  -0.702  0.00  0.00    -0.034 A 
ATOM      5  C4  UNL d   1      -0.611  -1.621   0.350  0.00  0.00     0.162 A 
ATOM      6  C5  UNL d   1      -0.569  -1.067   1.625  0.00  0.00     0.062 A 
ATOM      7  F   UNL d   1      -1.243  -1.646   2.629  0.00  0.00    -0.097 F 
ATOM      8  F1  UNL d   1      -1.333  -2.734   0.149  0.00  0.00    -0.096 F 
ATOM      9  I   UNL d   1       0.025  -1.852  -2.610  0.00  0.00    -0.060 I 
ATOM     10  F2  UNL d   1       1.511   0.731  -1.443  0.00  0.00    -0.096 F 
ATOM     11  F3  UNL d   1       1.582   1.795   1.047  0.00  0.00    -0.097 F 
ATOM     12  F4  UNL d   1       0.210   0.617   3.089  0.00  0.00    -0.092 F 
ENDROOT
TORSDOF 0
ENDMDL
