MODEL 1
REMARK minimizedAffinity -1.18865061
REMARK minimizedRMSD -1
REMARK  0 active torsions:
REMARK  status: ('A' for Active; 'I' for Inactive)
ROOT
ATOM      1  C   UNL d   1      -1.130  -0.157   2.407  0.00  0.00     0.124 A 
ATOM      2  C1  UNL d   1       0.222   0.128   2.274  0.00  0.00     0.062 A 
ATOM      3  C2  UNL d   1       0.789   0.256   1.010  0.00  0.00     0.162 A 
ATOM      4  C3  UNL d   1       0.004   0.100  -0.133  0.00  0.00    -0.034 A 
ATOM      5  C4  UNL d   1      -1.354  -0.188   0.009  0.00  0.00     0.162 A 
ATOM      6  C5  UNL d   1      -1.917  -0.315   1.275  0.00  0.00     0.062 A 
ATOM      7  F   UNL d   1      -3.223  -0.591   1.401  0.00  0.00    -0.097 F 
ATOM      8  F1  UNL d   1      -2.138  -0.345  -1.068  0.00  0.00    -0.096 F 
ATOM      9  I   UNL d   1       0.849   0.290  -2.025  0.00  0.00    -0.060 I 
ATOM     10  F2  UNL d   1       2.098   0.533   0.911  0.00  0.00    -0.096 F 
ATOM     11  F3  UNL d   1       0.984   0.281   3.367  0.00  0.00    -0.097 F 
ATOM     12  F4  UNL d   1      -1.673  -0.281   3.625  0.00  0.00    -0.092 F 
ENDROOT
TORSDOF 0
ENDMDL
