MODEL 1
REMARK minimizedAffinity -0.497427374
REMARK minimizedRMSD -1
REMARK  0 active torsions:
REMARK  status: ('A' for Active; 'I' for Inactive)
ROOT
ATOM      1  C   UNL d   1       0.681  -0.800   2.264  0.00  0.00     0.172 C 
ATOM      2  N   UNL d   1       1.117  -1.885   1.416  0.00  0.00    -0.070 N 
ATOM      3  C1  UNL d   1       0.425  -3.043   1.183  0.00  0.00    -0.004 A 
ATOM      4  C2  UNL d   1       1.174  -3.817   0.323  0.00  0.00    -0.047 A 
ATOM      5  C3  UNL d   1       2.358  -3.099   0.030  0.00  0.00    -0.047 A 
ATOM      6  C4  UNL d   1       2.297  -1.906   0.720  0.00  0.00    -0.004 A 
ENDROOT
TORSDOF 0
ENDMDL
