MODEL 1
REMARK minimizedAffinity -2.0647223
REMARK minimizedRMSD -1
REMARK  0 active torsions:
REMARK  status: ('A' for Active; 'I' for Inactive)
ROOT
ATOM      1  C   UNL d   1       2.021  -3.983   0.014  0.00  0.00     0.172 C 
ATOM      2  N   UNL d   1       1.417  -2.682   0.187  0.00  0.00    -0.070 N 
ATOM      3  C1  UNL d   1       2.079  -1.535   0.535  0.00  0.00    -0.004 A 
ATOM      4  C2  UNL d   1       1.153  -0.516   0.596  0.00  0.00    -0.047 A 
ATOM      5  C3  UNL d   1      -0.108  -1.070   0.274  0.00  0.00    -0.047 A 
ATOM      6  C4  UNL d   1       0.084  -2.412   0.026  0.00  0.00    -0.004 A 
ENDROOT
TORSDOF 0
ENDMDL
