MODEL 1
REMARK minimizedAffinity -0.710238159
REMARK minimizedRMSD -1
REMARK  0 active torsions:
REMARK  status: ('A' for Active; 'I' for Inactive)
ROOT
ATOM      1  C   UNL d   1      -1.239  -1.006   1.497  0.00  0.00     0.172 C 
ATOM      2  N   UNL d   1       0.082  -0.617   1.061  0.00  0.00    -0.070 N 
ATOM      3  C1  UNL d   1       0.609  -0.837  -0.183  0.00  0.00    -0.004 A 
ATOM      4  C2  UNL d   1       1.886  -0.319  -0.199  0.00  0.00    -0.047 A 
ATOM      5  C3  UNL d   1       2.135   0.230   1.081  0.00  0.00    -0.047 A 
ATOM      6  C4  UNL d   1       1.002   0.032   1.842  0.00  0.00    -0.004 A 
ENDROOT
TORSDOF 0
ENDMDL
