MODEL 1
REMARK minimizedAffinity -0.916809022
REMARK minimizedRMSD -1
REMARK  0 active torsions:
REMARK  status: ('A' for Active; 'I' for Inactive)
ROOT
ATOM      1  C   UNL d   1       2.666  -0.427   0.102  0.00  0.00     0.172 C 
ATOM      2  N   UNL d   1       1.473  -1.216   0.302  0.00  0.00    -0.070 N 
ATOM      3  C1  UNL d   1       0.282  -0.752   0.793  0.00  0.00    -0.004 A 
ATOM      4  C2  UNL d   1      -0.601  -1.810   0.829  0.00  0.00    -0.047 A 
ATOM      5  C3  UNL d   1       0.084  -2.949   0.344  0.00  0.00    -0.047 A 
ATOM      6  C4  UNL d   1       1.366  -2.553   0.025  0.00  0.00    -0.004 A 
ENDROOT
TORSDOF 0
ENDMDL
