MODEL 1
REMARK minimizedAffinity -1.79864633
REMARK minimizedRMSD -1
REMARK  0 active torsions:
REMARK  status: ('A' for Active; 'I' for Inactive)
ROOT
ATOM      1  C   UNL d   1       1.330  -3.840   0.430  0.00  0.00     0.172 C 
ATOM      2  N   UNL d   1       0.821  -2.499   0.593  0.00  0.00    -0.070 N 
ATOM      3  C1  UNL d   1      -0.501  -2.144   0.613  0.00  0.00    -0.004 A 
ATOM      4  C2  UNL d   1      -0.569  -0.778   0.788  0.00  0.00    -0.047 A 
ATOM      5  C3  UNL d   1       0.759  -0.296   0.875  0.00  0.00    -0.047 A 
ATOM      6  C4  UNL d   1       1.599  -1.382   0.751  0.00  0.00    -0.004 A 
ENDROOT
TORSDOF 0
ENDMDL
