MODEL 1
REMARK minimizedAffinity -0.419920594
REMARK minimizedRMSD -1
REMARK  0 active torsions:
REMARK  status: ('A' for Active; 'I' for Inactive)
ROOT
ATOM      1  C   UNL d   1       1.151  -3.872   0.472  0.00  0.00     0.172 C 
ATOM      2  N   UNL d   1       1.063  -2.457   0.746  0.00  0.00    -0.070 N 
ATOM      3  C1  UNL d   1       2.124  -1.600   0.872  0.00  0.00    -0.004 A 
ATOM      4  C2  UNL d   1       1.623  -0.342   1.129  0.00  0.00    -0.047 A 
ATOM      5  C3  UNL d   1       0.212  -0.447   1.160  0.00  0.00    -0.047 A 
ATOM      6  C4  UNL d   1      -0.107  -1.766   0.920  0.00  0.00    -0.004 A 
ENDROOT
TORSDOF 0
ENDMDL
