MODEL 1
REMARK minimizedAffinity 1.622733
REMARK minimizedRMSD -1
REMARK  0 active torsions:
REMARK  status: ('A' for Active; 'I' for Inactive)
ROOT
ATOM      1  C   UNL d   1       2.380  -3.115  -0.042  0.00  0.00     0.172 C 
ATOM      2  N   UNL d   1       3.423  -4.113  -0.090  0.00  0.00    -0.070 N 
ATOM      3  C1  UNL d   1       4.599  -4.006  -0.783  0.00  0.00    -0.004 A 
ATOM      4  C2  UNL d   1       5.319  -5.162  -0.574  0.00  0.00    -0.047 A 
ATOM      5  C3  UNL d   1       4.550  -5.993   0.274  0.00  0.00    -0.047 A 
ATOM      6  C4  UNL d   1       3.380  -5.319   0.559  0.00  0.00    -0.004 A 
ENDROOT
TORSDOF 0
ENDMDL
