MODEL 1
REMARK minimizedAffinity -3.14053154
REMARK minimizedRMSD -1
REMARK  0 active torsions:
REMARK  status: ('A' for Active; 'I' for Inactive)
ROOT
ATOM      1  C   UNL d   1       1.686  -4.107   0.108  0.00  0.00     0.172 C 
ATOM      2  N   UNL d   1       0.791  -2.974   0.120  0.00  0.00    -0.070 N 
ATOM      3  C1  UNL d   1      -0.536  -3.001  -0.218  0.00  0.00    -0.004 A 
ATOM      4  C2  UNL d   1      -1.033  -1.724  -0.075  0.00  0.00    -0.047 A 
ATOM      5  C3  UNL d   1       0.031  -0.901   0.364  0.00  0.00    -0.047 A 
ATOM      6  C4  UNL d   1       1.149  -1.701   0.476  0.00  0.00    -0.004 A 
ENDROOT
TORSDOF 0
ENDMDL
