MODEL 1
REMARK minimizedAffinity -3.23993731
REMARK minimizedRMSD -1
REMARK  0 active torsions:
REMARK  status: ('A' for Active; 'I' for Inactive)
ROOT
ATOM      1  C   UNL d   1       1.542  -3.693   0.086  0.00  0.00     0.172 C 
ATOM      2  N   UNL d   1       1.112  -2.360   0.437  0.00  0.00    -0.070 N 
ATOM      3  C1  UNL d   1      -0.103  -2.029   0.976  0.00  0.00    -0.004 A 
ATOM      4  C2  UNL d   1      -0.123  -0.664   1.165  0.00  0.00    -0.047 A 
ATOM      5  C3  UNL d   1       1.122  -0.157   0.724  0.00  0.00    -0.047 A 
ATOM      6  C4  UNL d   1       1.867  -1.228   0.278  0.00  0.00    -0.004 A 
ENDROOT
TORSDOF 0
ENDMDL
