MODEL 1
REMARK minimizedAffinity -0.18646802
REMARK minimizedRMSD -1
REMARK  0 active torsions:
REMARK  status: ('A' for Active; 'I' for Inactive)
ROOT
ATOM      1  C   UNL d   1       3.767  -4.862  -0.251  0.00  0.00     0.172 C 
ATOM      2  N   UNL d   1       2.752  -3.850  -0.070  0.00  0.00    -0.070 N 
ATOM      3  C1  UNL d   1       1.400  -4.067  -0.069  0.00  0.00    -0.004 A 
ATOM      4  C2  UNL d   1       0.779  -2.853   0.134  0.00  0.00    -0.047 A 
ATOM      5  C3  UNL d   1       1.792  -1.874   0.258  0.00  0.00    -0.047 A 
ATOM      6  C4  UNL d   1       3.004  -2.518   0.128  0.00  0.00    -0.004 A 
ENDROOT
TORSDOF 0
ENDMDL
