MODEL 1
REMARK minimizedAffinity -1.26549482
REMARK minimizedRMSD -1
REMARK  0 active torsions:
REMARK  status: ('A' for Active; 'I' for Inactive)
ROOT
ATOM      1  C   UNL d   1      -0.376  -1.114   0.774  0.00  0.00     0.172 C 
ATOM      2  N   UNL d   1       0.705  -2.011   0.439  0.00  0.00    -0.070 N 
ATOM      3  C1  UNL d   1       1.970  -1.635   0.074  0.00  0.00    -0.004 A 
ATOM      4  C2  UNL d   1       2.699  -2.780  -0.162  0.00  0.00    -0.047 A 
ATOM      5  C3  UNL d   1       1.843  -3.883   0.068  0.00  0.00    -0.047 A 
ATOM      6  C4  UNL d   1       0.614  -3.378   0.439  0.00  0.00    -0.004 A 
ENDROOT
TORSDOF 0
ENDMDL
