MODEL 1
REMARK minimizedAffinity 2.96488047
REMARK minimizedRMSD -1
REMARK  0 active torsions:
REMARK  status: ('A' for Active; 'I' for Inactive)
ROOT
ATOM      1  C   UNL d   1       2.574   3.795  -5.403  0.00  0.00     0.172 C 
ATOM      2  N   UNL d   1       2.792   2.889  -4.300  0.00  0.00    -0.070 N 
ATOM      3  C1  UNL d   1       3.645   3.101  -3.250  0.00  0.00    -0.004 A 
ATOM      4  C2  UNL d   1       3.565   2.008  -2.414  0.00  0.00    -0.047 A 
ATOM      5  C3  UNL d   1       2.633   1.107  -2.982  0.00  0.00    -0.047 A 
ATOM      6  C4  UNL d   1       2.170   1.678  -4.149  0.00  0.00    -0.004 A 
ENDROOT
TORSDOF 0
ENDMDL
