MODEL 1
REMARK minimizedAffinity -2.14742565
REMARK minimizedRMSD -1
REMARK  0 active torsions:
REMARK  status: ('A' for Active; 'I' for Inactive)
ROOT
ATOM      1  C   UNL d   1       2.697  -0.715  -0.308  0.00  0.00     0.172 C 
ATOM      2  N   UNL d   1       1.395  -1.207   0.077  0.00  0.00    -0.070 N 
ATOM      3  C1  UNL d   1       0.982  -2.511   0.010  0.00  0.00    -0.004 A 
ATOM      4  C2  UNL d   1      -0.317  -2.567   0.467  0.00  0.00    -0.047 A 
ATOM      5  C3  UNL d   1      -0.698  -1.250   0.820  0.00  0.00    -0.047 A 
ATOM      6  C4  UNL d   1       0.380  -0.429   0.568  0.00  0.00    -0.004 A 
ENDROOT
TORSDOF 0
ENDMDL
