MODEL 1
REMARK minimizedAffinity 0.688469112
REMARK minimizedRMSD -1
REMARK  0 active torsions:
REMARK  status: ('A' for Active; 'I' for Inactive)
ROOT
ATOM      1  C   UNL d   1       2.594  -0.298   0.975  0.00  0.00     0.172 C 
ATOM      2  N   UNL d   1       1.423  -1.116   0.768  0.00  0.00    -0.070 N 
ATOM      3  C1  UNL d   1       0.140  -0.654   0.636  0.00  0.00    -0.004 A 
ATOM      4  C2  UNL d   1      -0.684  -1.744   0.454  0.00  0.00    -0.047 A 
ATOM      5  C3  UNL d   1       0.132  -2.900   0.479  0.00  0.00    -0.047 A 
ATOM      6  C4  UNL d   1       1.431  -2.482   0.675  0.00  0.00    -0.004 A 
ENDROOT
TORSDOF 0
ENDMDL
