MODEL 1
REMARK minimizedAffinity -3.30269146
REMARK minimizedRMSD -1
REMARK  0 active torsions:
REMARK  status: ('A' for Active; 'I' for Inactive)
ROOT
ATOM      1  C1  BNZ d   1      -5.449  -4.354  -4.200  0.00  0.00     0.000 A 
ATOM      2  C2  BNZ d   1      -4.177  -4.221  -3.711  0.00  0.00     0.000 A 
ATOM      3  C3  BNZ d   1      -3.374  -3.194  -4.121  0.00  0.00     0.000 A 
ATOM      4  C4  BNZ d   1      -3.828  -2.325  -5.047  0.00  0.00     0.000 A 
ATOM      5  C5  BNZ d   1      -5.105  -2.451  -5.556  0.00  0.00     0.000 A 
ATOM      6  C6  BNZ d   1      -5.925  -3.464  -5.113  0.00  0.00     0.000 A 
ENDROOT
TORSDOF 0
ENDMDL
