MODEL 1
REMARK minimizedAffinity -3.23191357
REMARK minimizedRMSD -1
REMARK  0 active torsions:
REMARK  status: ('A' for Active; 'I' for Inactive)
ROOT
ATOM      1  C1  BNZ d   1      -5.359  -3.614  -3.891  0.00  0.00     0.000 A 
ATOM      2  C2  BNZ d   1      -4.071  -4.004  -3.637  0.00  0.00     0.000 A 
ATOM      3  C3  BNZ d   1      -3.408  -4.832  -4.498  0.00  0.00     0.000 A 
ATOM      4  C4  BNZ d   1      -4.046  -5.301  -5.590  0.00  0.00     0.000 A 
ATOM      5  C5  BNZ d   1      -5.347  -4.925  -5.855  0.00  0.00     0.000 A 
ATOM      6  C6  BNZ d   1      -5.999  -4.060  -5.006  0.00  0.00     0.000 A 
ENDROOT
TORSDOF 0
ENDMDL
