MODEL 1
REMARK minimizedAffinity -3.30602956
REMARK minimizedRMSD -1
REMARK  0 active torsions:
REMARK  status: ('A' for Active; 'I' for Inactive)
ROOT
ATOM      1  C1  BNZ d   1      -5.525  -5.298  -4.395  0.00  0.00     0.000 A 
ATOM      2  C2  BNZ d   1      -4.179  -5.543  -4.327  0.00  0.00     0.000 A 
ATOM      3  C3  BNZ d   1      -3.277  -4.636  -4.808  0.00  0.00     0.000 A 
ATOM      4  C4  BNZ d   1      -3.722  -3.505  -5.392  0.00  0.00     0.000 A 
ATOM      5  C5  BNZ d   1      -5.076  -3.248  -5.477  0.00  0.00     0.000 A 
ATOM      6  C6  BNZ d   1      -5.980  -4.145  -4.957  0.00  0.00     0.000 A 
ENDROOT
TORSDOF 0
ENDMDL
