MODEL 1
REMARK minimizedAffinity -3.0856998
REMARK minimizedRMSD -1
REMARK  0 active torsions:
REMARK  status: ('A' for Active; 'I' for Inactive)
ROOT
ATOM      1  C1  BNZ d   1      -5.486  -5.113  -4.546  0.00  0.00     0.000 A 
ATOM      2  C2  BNZ d   1      -4.152  -5.303  -4.791  0.00  0.00     0.000 A 
ATOM      3  C3  BNZ d   1      -3.302  -4.238  -4.904  0.00  0.00     0.000 A 
ATOM      4  C4  BNZ d   1      -3.794  -2.985  -4.811  0.00  0.00     0.000 A 
ATOM      5  C5  BNZ d   1      -5.138  -2.778  -4.574  0.00  0.00     0.000 A 
ATOM      6  C6  BNZ d   1      -5.983  -3.853  -4.422  0.00  0.00     0.000 A 
ENDROOT
TORSDOF 0
ENDMDL
