MODEL 1
REMARK minimizedAffinity -3.70076132
REMARK minimizedRMSD -1
REMARK  0 active torsions:
REMARK  status: ('A' for Active; 'I' for Inactive)
ROOT
ATOM      1  C1  BNZ d   1      -3.462  -2.997  -4.444  0.00  0.00     0.000 A 
ATOM      2  C2  BNZ d   1      -3.681  -4.349  -4.420  0.00  0.00     0.000 A 
ATOM      3  C3  BNZ d   1      -4.950  -4.851  -4.344  0.00  0.00     0.000 A 
ATOM      4  C4  BNZ d   1      -5.994  -4.003  -4.250  0.00  0.00     0.000 A 
ATOM      5  C5  BNZ d   1      -5.789  -2.638  -4.263  0.00  0.00     0.000 A 
ATOM      6  C6  BNZ d   1      -4.513  -2.136  -4.380  0.00  0.00     0.000 A 
ENDROOT
TORSDOF 0
ENDMDL
