MODEL 1
REMARK minimizedAffinity -2.77898526
REMARK minimizedRMSD -1
REMARK  0 active torsions:
REMARK  status: ('A' for Active; 'I' for Inactive)
ROOT
ATOM      1  C1  BNZ d   1      -3.187  -4.393  -5.999  0.00  0.00     0.000 A 
ATOM      2  C2  BNZ d   1      -4.488  -4.175  -5.631  0.00  0.00     0.000 A 
ATOM      3  C3  BNZ d   1      -4.972  -4.660  -4.448  0.00  0.00     0.000 A 
ATOM      4  C4  BNZ d   1      -4.166  -5.394  -3.654  0.00  0.00     0.000 A 
ATOM      5  C5  BNZ d   1      -2.855  -5.630  -4.015  0.00  0.00     0.000 A 
ATOM      6  C6  BNZ d   1      -2.361  -5.108  -5.188  0.00  0.00     0.000 A 
ENDROOT
TORSDOF 0
ENDMDL
