MODEL 1
REMARK minimizedAffinity -2.96015573
REMARK minimizedRMSD -1
REMARK  0 active torsions:
REMARK  status: ('A' for Active; 'I' for Inactive)
ROOT
ATOM      1  C1  BNZ d   1      -5.997  -4.138  -4.106  0.00  0.00     0.000 A 
ATOM      2  C2  BNZ d   1      -5.946  -3.135  -5.036  0.00  0.00     0.000 A 
ATOM      3  C3  BNZ d   1      -4.973  -3.120  -5.996  0.00  0.00     0.000 A 
ATOM      4  C4  BNZ d   1      -4.030  -4.084  -6.000  0.00  0.00     0.000 A 
ATOM      5  C5  BNZ d   1      -4.063  -5.097  -5.062  0.00  0.00     0.000 A 
ATOM      6  C6  BNZ d   1      -5.067  -5.131  -4.122  0.00  0.00     0.000 A 
ENDROOT
TORSDOF 0
ENDMDL
