MODEL 1
REMARK minimizedAffinity -2.7628355
REMARK minimizedRMSD -1
REMARK  0 active torsions:
REMARK  status: ('A' for Active; 'I' for Inactive)
ROOT
ATOM      1  C1  BNZ d   1      -5.272  -5.243  -6.000  0.00  0.00     0.000 A 
ATOM      2  C2  BNZ d   1      -5.525  -3.990  -5.510  0.00  0.00     0.000 A 
ATOM      3  C3  BNZ d   1      -4.524  -3.236  -4.965  0.00  0.00     0.000 A 
ATOM      4  C4  BNZ d   1      -3.280  -3.750  -4.876  0.00  0.00     0.000 A 
ATOM      5  C5  BNZ d   1      -3.011  -5.016  -5.357  0.00  0.00     0.000 A 
ATOM      6  C6  BNZ d   1      -4.013  -5.757  -5.940  0.00  0.00     0.000 A 
ENDROOT
TORSDOF 0
ENDMDL
