MODEL 1
REMARK minimizedAffinity -3.49387527
REMARK minimizedRMSD -1
REMARK  0 active torsions:
REMARK  status: ('A' for Active; 'I' for Inactive)
ROOT
ATOM      1  C1  BNZ d   1      -2.930  -4.090  -5.305  0.00  0.00     0.000 A 
ATOM      2  C2  BNZ d   1      -3.376  -2.992  -5.991  0.00  0.00     0.000 A 
ATOM      3  C3  BNZ d   1      -4.688  -2.614  -5.931  0.00  0.00     0.000 A 
ATOM      4  C4  BNZ d   1      -5.560  -3.356  -5.218  0.00  0.00     0.000 A 
ATOM      5  C5  BNZ d   1      -5.128  -4.471  -4.528  0.00  0.00     0.000 A 
ATOM      6  C6  BNZ d   1      -3.799  -4.827  -4.559  0.00  0.00     0.000 A 
ENDROOT
TORSDOF 0
ENDMDL
