MODEL 1
REMARK minimizedAffinity -3.43323207
REMARK minimizedRMSD -1
REMARK  0 active torsions:
REMARK  status: ('A' for Active; 'I' for Inactive)
ROOT
ATOM      1  C1  BNZ d   1      -3.888  -4.682  -5.691  0.00  0.00     0.000 A 
ATOM      2  C2  BNZ d   1      -3.208  -3.544  -5.347  0.00  0.00     0.000 A 
ATOM      3  C3  BNZ d   1      -3.851  -2.340  -5.272  0.00  0.00     0.000 A 
ATOM      4  C4  BNZ d   1      -5.162  -2.269  -5.579  0.00  0.00     0.000 A 
ATOM      5  C5  BNZ d   1      -5.859  -3.405  -5.937  0.00  0.00     0.000 A 
ATOM      6  C6  BNZ d   1      -5.217  -4.622  -5.973  0.00  0.00     0.000 A 
ENDROOT
TORSDOF 0
ENDMDL
