MODEL 1
REMARK minimizedAffinity -2.38429403
REMARK minimizedRMSD -1
REMARK  0 active torsions:
REMARK  status: ('A' for Active; 'I' for Inactive)
ROOT
ATOM      1  C1  BNZ d   1      -5.580  -4.872  -5.959  0.00  0.00     0.000 A 
ATOM      2  C2  BNZ d   1      -5.999  -3.570  -5.883  0.00  0.00     0.000 A 
ATOM      3  C3  BNZ d   1      -5.318  -2.659  -5.125  0.00  0.00     0.000 A 
ATOM      4  C4  BNZ d   1      -4.244  -3.058  -4.414  0.00  0.00     0.000 A 
ATOM      5  C5  BNZ d   1      -3.815  -4.369  -4.472  0.00  0.00     0.000 A 
ATOM      6  C6  BNZ d   1      -4.480  -5.275  -5.267  0.00  0.00     0.000 A 
ENDROOT
TORSDOF 0
ENDMDL
