MODEL 1
REMARK minimizedAffinity 2.32006502
REMARK minimizedRMSD -1
REMARK  0 active torsions:
REMARK  status: ('A' for Active; 'I' for Inactive)
ROOT
ATOM      1  C1  BNZ d   1      -1.948  -6.000  -3.959  0.00  0.00     0.000 A 
ATOM      2  C2  BNZ d   1      -1.076  -5.983  -5.015  0.00  0.00     0.000 A 
ATOM      3  C3  BNZ d   1      -1.187  -5.042  -6.000  0.00  0.00     0.000 A 
ATOM      4  C4  BNZ d   1      -2.193  -4.145  -5.949  0.00  0.00     0.000 A 
ATOM      5  C5  BNZ d   1      -3.086  -4.155  -4.896  0.00  0.00     0.000 A 
ATOM      6  C6  BNZ d   1      -2.948  -5.079  -3.887  0.00  0.00     0.000 A 
ENDROOT
TORSDOF 0
ENDMDL
