MODEL 1
REMARK minimizedAffinity -1.2786926
REMARK minimizedRMSD -1
REMARK  0 active torsions:
REMARK  status: ('A' for Active; 'I' for Inactive)
ROOT
ATOM      1  C1  BNZ d   1      -2.561  -5.660  -5.626  0.00  0.00     0.000 A 
ATOM      2  C2  BNZ d   1      -1.770  -4.616  -5.228  0.00  0.00     0.000 A 
ATOM      3  C3  BNZ d   1      -2.261  -3.341  -5.190  0.00  0.00     0.000 A 
ATOM      4  C4  BNZ d   1      -3.528  -3.106  -5.587  0.00  0.00     0.000 A 
ATOM      5  C5  BNZ d   1      -4.336  -4.147  -5.999  0.00  0.00     0.000 A 
ATOM      6  C6  BNZ d   1      -3.850  -5.435  -6.000  0.00  0.00     0.000 A 
ENDROOT
TORSDOF 0
ENDMDL
