MODEL 1
REMARK minimizedAffinity -3.24127531
REMARK minimizedRMSD -1
REMARK  0 active torsions:
REMARK  status: ('A' for Active; 'I' for Inactive)
ROOT
ATOM      1  C1  BNZ d   1      -2.833  -5.132  -5.619  0.00  0.00     0.000 A 
ATOM      2  C2  BNZ d   1      -3.926  -5.957  -5.591  0.00  0.00     0.000 A 
ATOM      3  C3  BNZ d   1      -5.140  -5.496  -5.165  0.00  0.00     0.000 A 
ATOM      4  C4  BNZ d   1      -5.251  -4.224  -4.731  0.00  0.00     0.000 A 
ATOM      5  C5  BNZ d   1      -4.156  -3.383  -4.744  0.00  0.00     0.000 A 
ATOM      6  C6  BNZ d   1      -2.945  -3.839  -5.210  0.00  0.00     0.000 A 
ENDROOT
TORSDOF 0
ENDMDL
