MODEL 1
REMARK minimizedAffinity -2.493958
REMARK minimizedRMSD -1
REMARK  0 active torsions:
REMARK  status: ('A' for Active; 'I' for Inactive)
ROOT
ATOM      1  C1  BNZ d   1      -3.991  -3.624  -5.837  0.00  0.00     0.000 A 
ATOM      2  C2  BNZ d   1      -5.333  -3.649  -5.562  0.00  0.00     0.000 A 
ATOM      3  C3  BNZ d   1      -5.999  -4.835  -5.434  0.00  0.00     0.000 A 
ATOM      4  C4  BNZ d   1      -5.334  -5.993  -5.620  0.00  0.00     0.000 A 
ATOM      5  C5  BNZ d   1      -3.983  -5.985  -5.907  0.00  0.00     0.000 A 
ATOM      6  C6  BNZ d   1      -3.307  -4.790  -5.997  0.00  0.00     0.000 A 
ENDROOT
TORSDOF 0
ENDMDL
