MODEL 1
REMARK minimizedAffinity -3.01008081
REMARK minimizedRMSD -1
REMARK  0 active torsions:
REMARK  status: ('A' for Active; 'I' for Inactive)
ROOT
ATOM      1  C1  BNZ d   1      -2.688  -4.336  -4.872  0.00  0.00     0.000 A 
ATOM      2  C2  BNZ d   1      -3.104  -5.603  -5.182  0.00  0.00     0.000 A 
ATOM      3  C3  BNZ d   1      -4.385  -5.838  -5.596  0.00  0.00     0.000 A 
ATOM      4  C4  BNZ d   1      -5.260  -4.813  -5.661  0.00  0.00     0.000 A 
ATOM      5  C5  BNZ d   1      -4.858  -3.531  -5.342  0.00  0.00     0.000 A 
ATOM      6  C6  BNZ d   1      -3.557  -3.292  -4.963  0.00  0.00     0.000 A 
ENDROOT
TORSDOF 0
ENDMDL
