MODEL 1
REMARK minimizedAffinity -2.8673048
REMARK minimizedRMSD -1
REMARK  0 active torsions:
REMARK  status: ('A' for Active; 'I' for Inactive)
ROOT
ATOM      1  C1  BNZ d   1      -3.177  -4.198  -5.092  0.00  0.00     0.000 A 
ATOM      2  C2  BNZ d   1      -3.950  -4.883  -5.991  0.00  0.00     0.000 A 
ATOM      3  C3  BNZ d   1      -5.314  -4.801  -5.947  0.00  0.00     0.000 A 
ATOM      4  C4  BNZ d   1      -5.903  -4.067  -4.982  0.00  0.00     0.000 A 
ATOM      5  C5  BNZ d   1      -5.138  -3.377  -4.063  0.00  0.00     0.000 A 
ATOM      6  C6  BNZ d   1      -3.764  -3.431  -4.134  0.00  0.00     0.000 A 
ENDROOT
TORSDOF 0
ENDMDL
