MODEL 1
REMARK minimizedAffinity -4.29142618
REMARK minimizedRMSD -1
REMARK  0 active torsions:
REMARK  status: ('A' for Active; 'I' for Inactive)
ROOT
ATOM      1  C2' OXE d   1       0.421   2.299  -0.053  0.00  0.00     0.078 C 
ATOM      2  C1' OXE d   1      -1.005  -0.032  -0.696  0.00  0.00     0.078 C 
ATOM      3  C1  OXE d   1       0.431  -0.183  -0.261  0.00  0.00    -0.078 A 
ATOM      4  C2  OXE d   1       1.135   0.966   0.007  0.00  0.00    -0.078 A 
ATOM      5  C3  OXE d   1       2.447   0.880   0.465  0.00  0.00     0.003 A 
ATOM      6  C4  OXE d   1       3.103  -0.356   0.508  0.00  0.00    -0.002 A 
ATOM      7  C5  OXE d   1       2.416  -1.535   0.201  0.00  0.00    -0.002 A 
ATOM      8  C6  OXE d   1       1.071  -1.470  -0.143  0.00  0.00     0.003 A 
ENDROOT
TORSDOF 0
ENDMDL
