MODEL 1
REMARK minimizedAffinity -4.59375858
REMARK minimizedRMSD -1
REMARK  0 active torsions:
REMARK  status: ('A' for Active; 'I' for Inactive)
ROOT
ATOM      1  C2' OXE d   1       0.393   2.205   0.355  0.00  0.00     0.078 C 
ATOM      2  C1' OXE d   1      -1.030  -0.163  -0.147  0.00  0.00     0.078 C 
ATOM      3  C1  OXE d   1       0.440  -0.279   0.170  0.00  0.00    -0.078 A 
ATOM      4  C2  OXE d   1       1.138   0.888   0.368  0.00  0.00    -0.078 A 
ATOM      5  C3  OXE d   1       2.485   0.834   0.718  0.00  0.00     0.003 A 
ATOM      6  C4  OXE d   1       3.169  -0.387   0.719  0.00  0.00    -0.002 A 
ATOM      7  C5  OXE d   1       2.485  -1.584   0.480  0.00  0.00    -0.002 A 
ATOM      8  C6  OXE d   1       1.115  -1.551   0.247  0.00  0.00     0.003 A 
ENDROOT
TORSDOF 0
ENDMDL
