MODEL 1
REMARK minimizedAffinity -4.93506289
REMARK minimizedRMSD -1
REMARK  0 active torsions:
REMARK  status: ('A' for Active; 'I' for Inactive)
ROOT
ATOM      1  C2' OXE d   1       1.475   2.210  -0.308  0.00  0.00     0.078 C 
ATOM      2  C1' OXE d   1       2.903   0.300   1.174  0.00  0.00     0.078 C 
ATOM      3  C1  OXE d   1       1.474  -0.017   0.809  0.00  0.00    -0.078 A 
ATOM      4  C2  OXE d   1       0.769   0.943   0.124  0.00  0.00    -0.078 A 
ATOM      5  C3  OXE d   1      -0.536   0.680  -0.285  0.00  0.00     0.003 A 
ATOM      6  C4  OXE d   1      -1.185  -0.490   0.128  0.00  0.00    -0.002 A 
ATOM      7  C5  OXE d   1      -0.497  -1.464   0.860  0.00  0.00    -0.002 A 
ATOM      8  C6  OXE d   1       0.843  -1.262   1.172  0.00  0.00     0.003 A 
ENDROOT
TORSDOF 0
ENDMDL
