MODEL 1
REMARK minimizedAffinity -3.88736367
REMARK minimizedRMSD -1
REMARK  0 active torsions:
REMARK  status: ('A' for Active; 'I' for Inactive)
ROOT
ATOM      1  C2' OXE d   1       3.230  -0.289   0.815  0.00  0.00     0.078 C 
ATOM      2  C1' OXE d   1       1.252  -2.276   0.961  0.00  0.00     0.078 C 
ATOM      3  C1  OXE d   1       0.832  -0.896   0.520  0.00  0.00    -0.078 A 
ATOM      4  C2  OXE d   1       1.798   0.082   0.497  0.00  0.00    -0.078 A 
ATOM      5  C3  OXE d   1       1.475   1.358   0.046  0.00  0.00     0.003 A 
ATOM      6  C4  OXE d   1       0.146   1.696  -0.237  0.00  0.00    -0.002 A 
ATOM      7  C5  OXE d   1      -0.860   0.725  -0.181  0.00  0.00    -0.002 A 
ATOM      8  C6  OXE d   1      -0.527  -0.583   0.154  0.00  0.00     0.003 A 
ENDROOT
TORSDOF 0
ENDMDL
