MODEL 1
REMARK minimizedAffinity -5.78522778
REMARK minimizedRMSD -1
REMARK  0 active torsions:
REMARK  status: ('A' for Active; 'I' for Inactive)
ROOT
ATOM      1  C2' OXE d   1       0.760   1.552  -0.149  0.00  0.00     0.078 C 
ATOM      2  C1' OXE d   1      -0.964  -0.653   0.063  0.00  0.00     0.078 C 
ATOM      3  C1  OXE d   1       0.402  -0.765   0.692  0.00  0.00    -0.078 A 
ATOM      4  C2  OXE d   1       1.256   0.301   0.543  0.00  0.00    -0.078 A 
ATOM      5  C3  OXE d   1       2.508   0.271   1.151  0.00  0.00     0.003 A 
ATOM      6  C4  OXE d   1       2.963  -0.893   1.780  0.00  0.00    -0.002 A 
ATOM      7  C5  OXE d   1       2.124  -2.005   1.909  0.00  0.00    -0.002 A 
ATOM      8  C6  OXE d   1       0.828  -1.942   1.408  0.00  0.00     0.003 A 
ENDROOT
TORSDOF 0
ENDMDL
