MODEL 1
REMARK minimizedAffinity -2.22846413
REMARK minimizedRMSD -1
REMARK  0 active torsions:
REMARK  status: ('A' for Active; 'I' for Inactive)
ROOT
ATOM      1  C2' OXE d   1      -2.970  -2.808  -2.523  0.00  0.00     0.078 C 
ATOM      2  C1' OXE d   1      -1.986  -1.187  -0.452  0.00  0.00     0.078 C 
ATOM      3  C1  OXE d   1      -2.682  -0.509  -1.606  0.00  0.00    -0.078 A 
ATOM      4  C2  OXE d   1      -3.119  -1.306  -2.637  0.00  0.00    -0.078 A 
ATOM      5  C3  OXE d   1      -3.815  -0.738  -3.700  0.00  0.00     0.003 A 
ATOM      6  C4  OXE d   1      -3.940   0.653  -3.803  0.00  0.00    -0.002 A 
ATOM      7  C5  OXE d   1      -3.467   1.486  -2.783  0.00  0.00    -0.002 A 
ATOM      8  C6  OXE d   1      -2.875   0.919  -1.660  0.00  0.00     0.003 A 
ENDROOT
TORSDOF 0
ENDMDL
