MODEL 1
REMARK minimizedAffinity -4.25858021
REMARK minimizedRMSD -1
REMARK  0 active torsions:
REMARK  status: ('A' for Active; 'I' for Inactive)
ROOT
ATOM      1  C2' OXE d   1      -0.549   0.500   0.088  0.00  0.00     0.078 C 
ATOM      2  C1' OXE d   1       1.590   1.879  -1.097  0.00  0.00     0.078 C 
ATOM      3  C1  OXE d   1       1.913   0.672  -0.254  0.00  0.00    -0.078 A 
ATOM      4  C2  OXE d   1       0.864   0.030   0.360  0.00  0.00    -0.078 A 
ATOM      5  C3  OXE d   1       1.101  -1.121   1.105  0.00  0.00     0.003 A 
ATOM      6  C4  OXE d   1       2.412  -1.543   1.361  0.00  0.00    -0.002 A 
ATOM      7  C5  OXE d   1       3.497  -0.881   0.777  0.00  0.00    -0.002 A 
ATOM      8  C6  OXE d   1       3.263   0.200  -0.065  0.00  0.00     0.003 A 
ENDROOT
TORSDOF 0
ENDMDL
