MODEL 1
REMARK minimizedAffinity -4.83528328
REMARK minimizedRMSD -1
REMARK  0 active torsions:
REMARK  status: ('A' for Active; 'I' for Inactive)
ROOT
ATOM      1  C2' OXE d   1      -1.449  -0.631   0.378  0.00  0.00     0.078 C 
ATOM      2  C1' OXE d   1       0.446  -2.413   1.433  0.00  0.00     0.078 C 
ATOM      3  C1  OXE d   1       0.941  -1.087   0.913  0.00  0.00    -0.078 A 
ATOM      4  C2  OXE d   1       0.013  -0.240   0.356  0.00  0.00    -0.078 A 
ATOM      5  C3  OXE d   1       0.407   1.019  -0.090  0.00  0.00     0.003 A 
ATOM      6  C4  OXE d   1       1.763   1.368  -0.116  0.00  0.00    -0.002 A 
ATOM      7  C5  OXE d   1       2.729   0.504   0.410  0.00  0.00    -0.002 A 
ATOM      8  C6  OXE d   1       2.331  -0.706   0.966  0.00  0.00     0.003 A 
ENDROOT
TORSDOF 0
ENDMDL
