MODEL 1
REMARK minimizedAffinity -1.7829119
REMARK minimizedRMSD -1
REMARK  0 active torsions:
REMARK  status: ('A' for Active; 'I' for Inactive)
ROOT
ATOM      1  C2' OXE d   1      -0.360  -1.713  -0.486  0.00  0.00     0.078 C 
ATOM      2  C1' OXE d   1      -0.754   0.804   0.694  0.00  0.00     0.078 C 
ATOM      3  C1  OXE d   1       0.630   0.207   0.754  0.00  0.00    -0.078 A 
ATOM      4  C2  OXE d   1       0.803  -1.045   0.215  0.00  0.00    -0.078 A 
ATOM      5  C3  OXE d   1       2.071  -1.617   0.195  0.00  0.00     0.003 A 
ATOM      6  C4  OXE d   1       3.140  -0.997   0.854  0.00  0.00    -0.002 A 
ATOM      7  C5  OXE d   1       2.976   0.261   1.444  0.00  0.00    -0.002 A 
ATOM      8  C6  OXE d   1       1.740   0.894   1.366  0.00  0.00     0.003 A 
ENDROOT
TORSDOF 0
ENDMDL
