MODEL 1
REMARK minimizedAffinity 12.4540071
REMARK minimizedRMSD -1
REMARK  0 active torsions:
REMARK  status: ('A' for Active; 'I' for Inactive)
ROOT
ATOM      1  N1  IND d   1       5.326   3.643   1.200  0.00  0.00    -0.196 N 
ATOM      2  C2  IND d   1       5.038   4.788   1.889  0.00  0.00     0.054 A 
ATOM      3  C3  IND d   1       3.787   4.727   2.398  0.00  0.00    -0.031 A 
ATOM      4  C4  IND d   1       2.077   2.805   2.312  0.00  0.00     0.051 A 
ATOM      5  C5  IND d   1       1.872   1.569   1.766  0.00  0.00    -0.031 A 
ATOM      6  C6  IND d   1       2.829   0.947   0.989  0.00  0.00     0.015 A 
ATOM      7  C7  IND d   1       4.036   1.537   0.739  0.00  0.00    -0.016 A 
ATOM      8  C8  IND d   1       4.244   2.795   1.286  0.00  0.00    -0.047 A 
ATOM      9  C9  IND d   1       3.261   3.448   2.040  0.00  0.00    -0.096 A 
ATOM     10  HN1 IND d   1       6.061   3.480   0.783  0.00  0.00     0.298 HD
ENDROOT
TORSDOF 0
ENDMDL
