MODEL 1
REMARK minimizedAffinity 12.4191618
REMARK minimizedRMSD -1
REMARK  0 active torsions:
REMARK  status: ('A' for Active; 'I' for Inactive)
ROOT
ATOM      1  N1  IND d   1      -5.929  -1.985   1.899  0.00  0.00    -0.196 N 
ATOM      2  C2  IND d   1      -5.923  -1.025   2.871  0.00  0.00     0.054 A 
ATOM      3  C3  IND d   1      -5.958  -1.596   4.096  0.00  0.00    -0.031 A 
ATOM      4  C4  IND d   1      -5.927  -4.088   4.741  0.00  0.00     0.051 A 
ATOM      5  C5  IND d   1      -5.970  -5.341   4.198  0.00  0.00    -0.031 A 
ATOM      6  C6  IND d   1      -6.000  -5.545   2.834  0.00  0.00     0.015 A 
ATOM      7  C7  IND d   1      -5.976  -4.497   1.957  0.00  0.00    -0.016 A 
ATOM      8  C8  IND d   1      -5.939  -3.223   2.505  0.00  0.00    -0.047 A 
ATOM      9  C9  IND d   1      -5.952  -3.009   3.889  0.00  0.00    -0.096 A 
ATOM     10  HN1 IND d   1      -5.928  -1.841   1.051  0.00  0.00     0.298 HD
ENDROOT
TORSDOF 0
ENDMDL
