MODEL 1
REMARK minimizedAffinity 4.29554987
REMARK minimizedRMSD -1
REMARK  0 active torsions:
REMARK  status: ('A' for Active; 'I' for Inactive)
ROOT
ATOM      1  N1  IND d   1       2.335  -3.631  -3.001  0.00  0.00    -0.196 N 
ATOM      2  C2  IND d   1       2.767  -4.497  -3.967  0.00  0.00     0.054 A 
ATOM      3  C3  IND d   1       3.794  -5.243  -3.504  0.00  0.00    -0.031 A 
ATOM      4  C4  IND d   1       4.860  -5.284  -1.161  0.00  0.00     0.051 A 
ATOM      5  C5  IND d   1       4.828  -4.649   0.049  0.00  0.00    -0.031 A 
ATOM      6  C6  IND d   1       3.943  -3.622   0.309  0.00  0.00     0.015 A 
ATOM      7  C7  IND d   1       3.046  -3.199  -0.630  0.00  0.00    -0.016 A 
ATOM      8  C8  IND d   1       3.081  -3.838  -1.862  0.00  0.00    -0.047 A 
ATOM      9  C9  IND d   1       4.005  -4.851  -2.146  0.00  0.00    -0.096 A 
ATOM     10  HN1 IND d   1       1.703  -3.055  -3.091  0.00  0.00     0.298 HD
ENDROOT
TORSDOF 0
ENDMDL
