MODEL 1
REMARK minimizedAffinity 18.2256966
REMARK minimizedRMSD -1
REMARK  0 active torsions:
REMARK  status: ('A' for Active; 'I' for Inactive)
ROOT
ATOM      1  N1  IND d   1       1.728   2.829  -1.419  0.00  0.00    -0.196 N 
ATOM      2  C2  IND d   1       1.193   2.952  -2.671  0.00  0.00     0.054 A 
ATOM      3  C3  IND d   1       1.045   1.734  -3.240  0.00  0.00    -0.031 A 
ATOM      4  C4  IND d   1       1.519  -0.598  -2.259  0.00  0.00     0.051 A 
ATOM      5  C5  IND d   1       2.049  -1.218  -1.163  0.00  0.00    -0.031 A 
ATOM      6  C6  IND d   1       2.507  -0.507  -0.073  0.00  0.00     0.015 A 
ATOM      7  C7  IND d   1       2.440   0.857  -0.034  0.00  0.00    -0.016 A 
ATOM      8  C8  IND d   1       1.908   1.491  -1.148  0.00  0.00    -0.047 A 
ATOM      9  C9  IND d   1       1.482   0.776  -2.275  0.00  0.00    -0.096 A 
ATOM     10  HN1 IND d   1       1.920   3.479  -0.890  0.00  0.00     0.298 HD
ENDROOT
TORSDOF 0
ENDMDL
