MODEL 1
REMARK minimizedAffinity 11.2756844
REMARK minimizedRMSD -1
REMARK  0 active torsions:
REMARK  status: ('A' for Active; 'I' for Inactive)
ROOT
ATOM      1  N1  IND d   1       1.967   1.434   2.792  0.00  0.00    -0.196 N 
ATOM      2  C2  IND d   1       2.089   2.678   2.239  0.00  0.00     0.054 A 
ATOM      3  C3  IND d   1       0.893   3.107   1.777  0.00  0.00    -0.031 A 
ATOM      4  C4  IND d   1      -1.415   1.976   1.916  0.00  0.00     0.051 A 
ATOM      5  C5  IND d   1      -2.024   0.814   2.299  0.00  0.00    -0.031 A 
ATOM      6  C6  IND d   1      -1.320  -0.221   2.882  0.00  0.00     0.015 A 
ATOM      7  C7  IND d   1       0.023  -0.127   3.113  0.00  0.00    -0.016 A 
ATOM      8  C8  IND d   1       0.646   1.049   2.718  0.00  0.00    -0.047 A 
ATOM      9  C9  IND d   1      -0.055   2.085   2.088  0.00  0.00    -0.096 A 
ATOM     10  HN1 IND d   1       2.607   0.970   3.130  0.00  0.00     0.298 HD
ENDROOT
TORSDOF 0
ENDMDL
