MODEL 1
REMARK minimizedAffinity 7.79265833
REMARK minimizedRMSD -1
REMARK  0 active torsions:
REMARK  status: ('A' for Active; 'I' for Inactive)
ROOT
ATOM      1  N1  IND d   1       3.518  -3.851  -0.040  0.00  0.00    -0.196 N 
ATOM      2  C2  IND d   1       4.502  -4.792   0.079  0.00  0.00     0.054 A 
ATOM      3  C3  IND d   1       4.780  -5.337  -1.127  0.00  0.00    -0.031 A 
ATOM      4  C4  IND d   1       3.813  -4.763  -3.443  0.00  0.00     0.051 A 
ATOM      5  C5  IND d   1       2.861  -3.996  -4.053  0.00  0.00    -0.031 A 
ATOM      6  C6  IND d   1       2.064  -3.122  -3.342  0.00  0.00     0.015 A 
ATOM      7  C7  IND d   1       2.199  -2.973  -1.991  0.00  0.00    -0.016 A 
ATOM      8  C8  IND d   1       3.160  -3.756  -1.367  0.00  0.00    -0.047 A 
ATOM      9  C9  IND d   1       3.943  -4.676  -2.077  0.00  0.00    -0.096 A 
ATOM     10  HN1 IND d   1       3.178  -3.396   0.605  0.00  0.00     0.298 HD
ENDROOT
TORSDOF 0
ENDMDL
