MODEL 1
REMARK minimizedAffinity 3.12671041
REMARK minimizedRMSD -1
REMARK  0 active torsions:
REMARK  status: ('A' for Active; 'I' for Inactive)
ROOT
ATOM      1  N1  IND d   1       2.336   1.202  -2.502  0.00  0.00    -0.196 N 
ATOM      2  C2  IND d   1       1.841   0.506  -3.570  0.00  0.00     0.054 A 
ATOM      3  C3  IND d   1       1.965  -0.824  -3.362  0.00  0.00    -0.031 A 
ATOM      4  C4  IND d   1       2.855  -2.081  -1.300  0.00  0.00     0.051 A 
ATOM      5  C5  IND d   1       3.452  -1.876  -0.088  0.00  0.00    -0.031 A 
ATOM      6  C6  IND d   1       3.711  -0.609   0.392  0.00  0.00     0.015 A 
ATOM      7  C7  IND d   1       3.370   0.506  -0.320  0.00  0.00    -0.016 A 
ATOM      8  C8  IND d   1       2.770   0.301  -1.555  0.00  0.00    -0.047 A 
ATOM      9  C9  IND d   1       2.543  -0.983  -2.066  0.00  0.00    -0.096 A 
ATOM     10  HN1 IND d   1       2.371   2.059  -2.434  0.00  0.00     0.298 HD
ENDROOT
TORSDOF 0
ENDMDL
