MODEL 1
REMARK minimizedAffinity 19.1924343
REMARK minimizedRMSD -1
REMARK  0 active torsions:
REMARK  status: ('A' for Active; 'I' for Inactive)
ROOT
ATOM      1  N1  IND d   1      -5.988  -2.445   1.085  0.00  0.00    -0.196 N 
ATOM      2  C2  IND d   1      -5.966  -3.712   1.597  0.00  0.00     0.054 A 
ATOM      3  C3  IND d   1      -5.928  -3.673   2.948  0.00  0.00    -0.031 A 
ATOM      4  C4  IND d   1      -5.998  -1.642   4.528  0.00  0.00     0.051 A 
ATOM      5  C5  IND d   1      -5.985  -0.275   4.527  0.00  0.00    -0.031 A 
ATOM      6  C6  IND d   1      -5.974   0.453   3.355  0.00  0.00     0.015 A 
ATOM      7  C7  IND d   1      -5.988  -0.161   2.134  0.00  0.00    -0.016 A 
ATOM      8  C8  IND d   1      -5.995  -1.549   2.132  0.00  0.00    -0.047 A 
ATOM      9  C9  IND d   1      -5.963  -2.294   3.318  0.00  0.00    -0.096 A 
ATOM     10  HN1 IND d   1      -5.997  -2.241   0.250  0.00  0.00     0.298 HD
ENDROOT
TORSDOF 0
ENDMDL
