MODEL 1
REMARK minimizedAffinity 8.15666294
REMARK minimizedRMSD -1
REMARK  0 active torsions:
REMARK  status: ('A' for Active; 'I' for Inactive)
ROOT
ATOM      1  N1  IND d   1       1.488  -1.643  -0.640  0.00  0.00    -0.196 N 
ATOM      2  C2  IND d   1       2.486  -2.477  -0.219  0.00  0.00     0.054 A 
ATOM      3  C3  IND d   1       2.183  -3.761  -0.514  0.00  0.00    -0.031 A 
ATOM      4  C4  IND d   1       0.151  -4.712  -1.777  0.00  0.00     0.051 A 
ATOM      5  C5  IND d   1      -1.045  -4.344  -2.326  0.00  0.00    -0.031 A 
ATOM      6  C6  IND d   1      -1.465  -3.030  -2.344  0.00  0.00     0.015 A 
ATOM      7  C7  IND d   1      -0.696  -2.029  -1.822  0.00  0.00    -0.016 A 
ATOM      8  C8  IND d   1       0.516  -2.400  -1.257  0.00  0.00    -0.047 A 
ATOM      9  C9  IND d   1       0.929  -3.737  -1.198  0.00  0.00    -0.096 A 
ATOM     10  HN1 IND d   1       1.471  -0.790  -0.538  0.00  0.00     0.298 HD
ENDROOT
TORSDOF 0
ENDMDL
