MODEL 1
REMARK minimizedAffinity 12.7864037
REMARK minimizedRMSD -1
REMARK  0 active torsions:
REMARK  status: ('A' for Active; 'I' for Inactive)
ROOT
ATOM      1  N1  IND d   1       0.062  -5.012  -2.352  0.00  0.00    -0.196 N 
ATOM      2  C2  IND d   1      -0.568  -5.999  -3.058  0.00  0.00     0.054 A 
ATOM      3  C3  IND d   1      -1.785  -5.578  -3.472  0.00  0.00    -0.031 A 
ATOM      4  C4  IND d   1      -2.902  -3.276  -3.190  0.00  0.00     0.051 A 
ATOM      5  C5  IND d   1      -2.730  -2.062  -2.586  0.00  0.00    -0.031 A 
ATOM      6  C6  IND d   1      -1.595  -1.762  -1.860  0.00  0.00     0.015 A 
ATOM      7  C7  IND d   1      -0.580  -2.666  -1.721  0.00  0.00    -0.016 A 
ATOM      8  C8  IND d   1      -0.754  -3.902  -2.327  0.00  0.00    -0.047 A 
ATOM      9  C9  IND d   1      -1.922  -4.227  -3.029  0.00  0.00    -0.096 A 
ATOM     10  HN1 IND d   1       0.837  -5.074  -1.985  0.00  0.00     0.298 HD
ENDROOT
TORSDOF 0
ENDMDL
