MODEL 1
REMARK minimizedAffinity 21.1046104
REMARK minimizedRMSD -1
REMARK  0 active torsions:
REMARK  status: ('A' for Active; 'I' for Inactive)
ROOT
ATOM      1  N1  IND d   1       3.595   0.357   0.382  0.00  0.00    -0.196 N 
ATOM      2  C2  IND d   1       4.226   1.109  -0.569  0.00  0.00     0.054 A 
ATOM      3  C3  IND d   1       4.202   2.417  -0.227  0.00  0.00    -0.031 A 
ATOM      4  C4  IND d   1       3.271   3.535   1.897  0.00  0.00     0.051 A 
ATOM      5  C5  IND d   1       2.570   3.263   3.038  0.00  0.00    -0.031 A 
ATOM      6  C6  IND d   1       2.168   1.983   3.360  0.00  0.00     0.015 A 
ATOM      7  C7  IND d   1       2.465   0.920   2.554  0.00  0.00    -0.016 A 
ATOM      8  C8  IND d   1       3.171   1.193   1.391  0.00  0.00    -0.047 A 
ATOM      9  C9  IND d   1       3.544   2.496   1.039  0.00  0.00    -0.096 A 
ATOM     10  HN1 IND d   1       3.482  -0.495   0.354  0.00  0.00     0.298 HD
ENDROOT
TORSDOF 0
ENDMDL
