MODEL 1
REMARK minimizedAffinity 13.7156105
REMARK minimizedRMSD -1
REMARK  0 active torsions:
REMARK  status: ('A' for Active; 'I' for Inactive)
ROOT
ATOM      1  N1  IND d   1       2.617   2.733   3.813  0.00  0.00    -0.196 N 
ATOM      2  C2  IND d   1       3.001   3.159   5.054  0.00  0.00     0.054 A 
ATOM      3  C3  IND d   1       2.586   2.287   6.000  0.00  0.00    -0.031 A 
ATOM      4  C4  IND d   1       1.351   0.045   5.729  0.00  0.00     0.051 A 
ATOM      5  C5  IND d   1       0.756  -0.751   4.791  0.00  0.00    -0.031 A 
ATOM      6  C6  IND d   1       0.752  -0.420   3.451  0.00  0.00     0.015 A 
ATOM      7  C7  IND d   1       1.357   0.717   2.996  0.00  0.00    -0.016 A 
ATOM      8  C8  IND d   1       1.957   1.531   3.947  0.00  0.00    -0.047 A 
ATOM      9  C9  IND d   1       1.927   1.222   5.313  0.00  0.00    -0.096 A 
ATOM     10  HN1 IND d   1       2.763   3.146   3.073  0.00  0.00     0.298 HD
ENDROOT
TORSDOF 0
ENDMDL
