MODEL 1
REMARK minimizedAffinity 11.6997318
REMARK minimizedRMSD -1
REMARK  0 active torsions:
REMARK  status: ('A' for Active; 'I' for Inactive)
ROOT
ATOM      1  N1  IND d   1       1.330   4.255  -2.752  0.00  0.00    -0.196 N 
ATOM      2  C2  IND d   1       1.530   4.932  -1.581  0.00  0.00     0.054 A 
ATOM      3  C3  IND d   1       1.832   4.069  -0.585  0.00  0.00    -0.031 A 
ATOM      4  C4  IND d   1       2.153   1.517  -0.673  0.00  0.00     0.051 A 
ATOM      5  C5  IND d   1       2.041   0.445  -1.514  0.00  0.00    -0.031 A 
ATOM      6  C6  IND d   1       1.682   0.592  -2.838  0.00  0.00     0.015 A 
ATOM      7  C7  IND d   1       1.431   1.823  -3.376  0.00  0.00    -0.016 A 
ATOM      8  C8  IND d   1       1.537   2.912  -2.523  0.00  0.00    -0.047 A 
ATOM      9  C9  IND d   1       1.860   2.765  -1.168  0.00  0.00    -0.096 A 
ATOM     10  HN1 IND d   1       1.112   4.608  -3.505  0.00  0.00     0.298 HD
ENDROOT
TORSDOF 0
ENDMDL
