MODEL 1
REMARK minimizedAffinity 9.61931992
REMARK minimizedRMSD -1
REMARK  0 active torsions:
REMARK  status: ('A' for Active; 'I' for Inactive)
ROOT
ATOM      1  N1  IND d   1       1.305  -3.569  -0.115  0.00  0.00    -0.196 N 
ATOM      2  C2  IND d   1       2.145  -2.494  -0.205  0.00  0.00     0.054 A 
ATOM      3  C3  IND d   1       1.825  -1.736  -1.278  0.00  0.00    -0.031 A 
ATOM      4  C4  IND d   1      -0.103  -2.015  -2.962  0.00  0.00     0.051 A 
ATOM      5  C5  IND d   1      -1.113  -2.866  -3.311  0.00  0.00    -0.031 A 
ATOM      6  C6  IND d   1      -1.377  -4.017  -2.596  0.00  0.00     0.015 A 
ATOM      7  C7  IND d   1      -0.643  -4.355  -1.494  0.00  0.00    -0.016 A 
ATOM      8  C8  IND d   1       0.389  -3.497  -1.141  0.00  0.00    -0.047 A 
ATOM      9  C9  IND d   1       0.688  -2.349  -1.887  0.00  0.00    -0.096 A 
ATOM     10  HN1 IND d   1       1.343  -4.186   0.482  0.00  0.00     0.298 HD
ENDROOT
TORSDOF 0
ENDMDL
