MODEL 1
REMARK minimizedAffinity 13.4089842
REMARK minimizedRMSD -1
REMARK  0 active torsions:
REMARK  status: ('A' for Active; 'I' for Inactive)
ROOT
ATOM      1  N1  IND d   1      -5.993  -4.187   3.957  0.00  0.00    -0.196 N 
ATOM      2  C2  IND d   1      -5.968  -3.711   5.238  0.00  0.00     0.054 A 
ATOM      3  C3  IND d   1      -5.927  -2.359   5.236  0.00  0.00    -0.031 A 
ATOM      4  C4  IND d   1      -5.998  -0.723   3.250  0.00  0.00     0.051 A 
ATOM      5  C5  IND d   1      -5.986  -0.687   1.884  0.00  0.00    -0.031 A 
ATOM      6  C6  IND d   1      -5.979  -1.838   1.123  0.00  0.00     0.015 A 
ATOM      7  C7  IND d   1      -5.995  -3.075   1.704  0.00  0.00    -0.016 A 
ATOM      8  C8  IND d   1      -5.999  -3.116   3.091  0.00  0.00    -0.047 A 
ATOM      9  C9  IND d   1      -5.963  -1.951   3.868  0.00  0.00    -0.096 A 
ATOM     10  HN1 IND d   1      -6.003  -5.017   3.730  0.00  0.00     0.298 HD
ENDROOT
TORSDOF 0
ENDMDL
