MODEL 1
REMARK minimizedAffinity 14.9011955
REMARK minimizedRMSD -1
REMARK  0 active torsions:
REMARK  status: ('A' for Active; 'I' for Inactive)
ROOT
ATOM      1  N1  IND d   1       0.683  -3.402  -1.116  0.00  0.00    -0.196 N 
ATOM      2  C2  IND d   1       1.377  -2.225  -1.065  0.00  0.00     0.054 A 
ATOM      3  C3  IND d   1       0.680  -1.242  -1.679  0.00  0.00    -0.031 A 
ATOM      4  C4  IND d   1      -1.661  -1.318  -2.746  0.00  0.00     0.051 A 
ATOM      5  C5  IND d   1      -2.672  -2.180  -3.066  0.00  0.00    -0.031 A 
ATOM      6  C6  IND d   1      -2.615  -3.521  -2.744  0.00  0.00     0.015 A 
ATOM      7  C7  IND d   1      -1.547  -4.049  -2.076  0.00  0.00    -0.016 A 
ATOM      8  C8  IND d   1      -0.516  -3.177  -1.755  0.00  0.00    -0.047 A 
ATOM      9  C9  IND d   1      -0.548  -1.824  -2.117  0.00  0.00    -0.096 A 
ATOM     10  HN1 IND d   1       0.951  -4.156  -0.801  0.00  0.00     0.298 HD
ENDROOT
TORSDOF 0
ENDMDL
