MODEL 1
REMARK minimizedAffinity 18.822506
REMARK minimizedRMSD -1
REMARK  0 active torsions:
REMARK  status: ('A' for Active; 'I' for Inactive)
ROOT
ATOM      1  N1  IND d   1       2.918  -0.352  -0.680  0.00  0.00    -0.196 N 
ATOM      2  C2  IND d   1       3.506   0.510   0.203  0.00  0.00     0.054 A 
ATOM      3  C3  IND d   1       3.261   1.790  -0.155  0.00  0.00    -0.031 A 
ATOM      4  C4  IND d   1       1.834   2.700  -2.095  0.00  0.00     0.051 A 
ATOM      5  C5  IND d   1       1.127   2.298  -3.194  0.00  0.00    -0.031 A 
ATOM      6  C6  IND d   1       0.975   0.965  -3.515  0.00  0.00     0.015 A 
ATOM      7  C7  IND d   1       1.518  -0.021  -2.740  0.00  0.00    -0.016 A 
ATOM      8  C8  IND d   1       2.243   0.384  -1.628  0.00  0.00    -0.047 A 
ATOM      9  C9  IND d   1       2.436   1.737  -1.321  0.00  0.00    -0.096 A 
ATOM     10  HN1 IND d   1       2.963  -1.211  -0.648  0.00  0.00     0.298 HD
ENDROOT
TORSDOF 0
ENDMDL
