MODEL 1
REMARK minimizedAffinity 3.60638618
REMARK minimizedRMSD -1
REMARK  0 active torsions:
REMARK  status: ('A' for Active; 'I' for Inactive)
ROOT
ATOM      1  N1  IND d   1       1.092  -3.373  -0.582  0.00  0.00    -0.196 N 
ATOM      2  C2  IND d   1       0.160  -3.824  -1.474  0.00  0.00     0.054 A 
ATOM      3  C3  IND d   1      -0.017  -2.923  -2.466  0.00  0.00    -0.031 A 
ATOM      4  C4  IND d   1       1.192  -0.687  -2.878  0.00  0.00     0.051 A 
ATOM      5  C5  IND d   1       2.098   0.167  -2.315  0.00  0.00    -0.031 A 
ATOM      6  C6  IND d   1       2.730  -0.122  -1.123  0.00  0.00     0.015 A 
ATOM      7  C7  IND d   1       2.486  -1.287  -0.452  0.00  0.00    -0.016 A 
ATOM      8  C8  IND d   1       1.561  -2.154  -1.017  0.00  0.00    -0.047 A 
ATOM      9  C9  IND d   1       0.885  -1.846  -2.205  0.00  0.00    -0.096 A 
ATOM     10  HN1 IND d   1       1.342  -3.783   0.132  0.00  0.00     0.298 HD
ENDROOT
TORSDOF 0
ENDMDL
