MODEL 1
REMARK minimizedAffinity -4.96384001
REMARK minimizedRMSD -1
REMARK  0 active torsions:
REMARK  status: ('A' for Active; 'I' for Inactive)
ROOT
ATOM      1  N1  IND d   1      -0.115  -0.063   1.028  0.00  0.00    -0.196 N 
ATOM      2  C2  IND d   1       0.092   1.289   1.009  0.00  0.00     0.054 A 
ATOM      3  C3  IND d   1       0.974   1.616   0.038  0.00  0.00    -0.031 A 
ATOM      4  C4  IND d   1       2.124   0.109  -1.704  0.00  0.00     0.051 A 
ATOM      5  C5  IND d   1       2.276  -1.201  -2.062  0.00  0.00    -0.031 A 
ATOM      6  C6  IND d   1       1.624  -2.219  -1.397  0.00  0.00     0.015 A 
ATOM      7  C7  IND d   1       0.783  -1.962  -0.351  0.00  0.00    -0.016 A 
ATOM      8  C8  IND d   1       0.631  -0.634   0.020  0.00  0.00    -0.047 A 
ATOM      9  C9  IND d   1       1.323   0.400  -0.624  0.00  0.00    -0.096 A 
ATOM     10  HN1 IND d   1      -0.624  -0.485   1.576  0.00  0.00     0.298 HD
ENDROOT
TORSDOF 0
ENDMDL
