MODEL 1
REMARK minimizedAffinity -2.9818809
REMARK minimizedRMSD -1
REMARK  0 active torsions:
REMARK  status: ('A' for Active; 'I' for Inactive)
ROOT
ATOM      1  C   UNL d   1      -2.991   5.998  -6.000  0.00  0.00     0.078 C 
ATOM      2  C1  UNL d   1      -1.901   4.968  -5.989  0.00  0.00    -0.077 A 
ATOM      3  C2  UNL d   1      -0.552   5.346  -5.999  0.00  0.00    -0.001 A 
ATOM      4  C3  UNL d   1       0.452   4.377  -5.999  0.00  0.00     0.003 A 
ATOM      5  C4  UNL d   1       0.119   3.024  -5.990  0.00  0.00    -0.005 A 
ATOM      6  C5  UNL d   1      -1.220   2.638  -5.982  0.00  0.00     0.003 A 
ATOM      7  C6  UNL d   1      -2.226   3.606  -5.982  0.00  0.00    -0.001 A 
ENDROOT
TORSDOF 0
ENDMDL
