MODEL 1
REMARK minimizedAffinity -2.85888672
REMARK minimizedRMSD -1
REMARK  0 active torsions:
REMARK  status: ('A' for Active; 'I' for Inactive)
ROOT
ATOM      1  C   UNL d   1       1.650   4.878  -5.999  0.00  0.00     0.078 C 
ATOM      2  C1  UNL d   1       0.249   4.344  -5.997  0.00  0.00    -0.077 A 
ATOM      3  C2  UNL d   1      -0.853   5.208  -5.980  0.00  0.00    -0.001 A 
ATOM      4  C3  UNL d   1      -2.151   4.696  -5.969  0.00  0.00     0.003 A 
ATOM      5  C4  UNL d   1      -2.360   3.318  -5.974  0.00  0.00    -0.005 A 
ATOM      6  C5  UNL d   1      -1.270   2.450  -5.988  0.00  0.00     0.003 A 
ATOM      7  C6  UNL d   1       0.029   2.961  -5.999  0.00  0.00    -0.001 A 
ENDROOT
TORSDOF 0
ENDMDL
