MODEL 1
REMARK minimizedAffinity -2.48591185
REMARK minimizedRMSD -1
REMARK  0 active torsions:
REMARK  status: ('A' for Active; 'I' for Inactive)
ROOT
ATOM      1  C   UNL d   1       1.339   2.259  -5.995  0.00  0.00     0.078 C 
ATOM      2  C1  UNL d   1       0.145   3.166  -5.988  0.00  0.00    -0.077 A 
ATOM      3  C2  UNL d   1      -1.156   2.647  -5.988  0.00  0.00    -0.001 A 
ATOM      4  C3  UNL d   1      -2.258   3.504  -5.991  0.00  0.00     0.003 A 
ATOM      5  C4  UNL d   1      -2.071   4.884  -5.996  0.00  0.00    -0.005 A 
ATOM      6  C5  UNL d   1      -0.780   5.410  -5.999  0.00  0.00     0.003 A 
ATOM      7  C6  UNL d   1       0.323   4.555  -5.995  0.00  0.00    -0.001 A 
ENDROOT
TORSDOF 0
ENDMDL
