MODEL 1
REMARK minimizedAffinity -2.8992784
REMARK minimizedRMSD -1
REMARK  0 active torsions:
REMARK  status: ('A' for Active; 'I' for Inactive)
ROOT
ATOM      1  C   UNL d   1       1.825   4.614  -5.987  0.00  0.00     0.078 C 
ATOM      2  C1  UNL d   1       0.357   4.309  -5.999  0.00  0.00    -0.077 A 
ATOM      3  C2  UNL d   1      -0.593   5.338  -5.998  0.00  0.00    -0.001 A 
ATOM      4  C3  UNL d   1      -1.957   5.039  -5.999  0.00  0.00     0.003 A 
ATOM      5  C4  UNL d   1      -2.382   3.712  -6.000  0.00  0.00    -0.005 A 
ATOM      6  C5  UNL d   1      -1.444   2.682  -5.998  0.00  0.00     0.003 A 
ATOM      7  C6  UNL d   1      -0.080   2.979  -5.997  0.00  0.00    -0.001 A 
ENDROOT
TORSDOF 0
ENDMDL
