MODEL 1
REMARK minimizedAffinity 0.0622200035
REMARK minimizedRMSD -1
REMARK  0 active torsions:
REMARK  status: ('A' for Active; 'I' for Inactive)
ROOT
ATOM      1  C   UNL d   1       1.390   3.387  -5.989  0.00  0.00     0.078 C 
ATOM      2  C1  UNL d   1      -0.026   3.880  -6.000  0.00  0.00    -0.077 A 
ATOM      3  C2  UNL d   1      -0.312   5.251  -5.998  0.00  0.00    -0.001 A 
ATOM      4  C3  UNL d   1      -1.635   5.696  -5.998  0.00  0.00     0.003 A 
ATOM      5  C4  UNL d   1      -2.682   4.777  -5.999  0.00  0.00    -0.005 A 
ATOM      6  C5  UNL d   1      -2.407   3.411  -5.998  0.00  0.00     0.003 A 
ATOM      7  C6  UNL d   1      -1.085   2.964  -5.998  0.00  0.00    -0.001 A 
ENDROOT
TORSDOF 0
ENDMDL
