MODEL 1
REMARK minimizedAffinity -2.61783385
REMARK minimizedRMSD -1
REMARK  0 active torsions:
REMARK  status: ('A' for Active; 'I' for Inactive)
ROOT
ATOM      1  C   UNL d   1      -4.037   3.780  -5.986  0.00  0.00     0.078 C 
ATOM      2  C1  UNL d   1      -2.603   4.221  -5.983  0.00  0.00    -0.077 A 
ATOM      3  C2  UNL d   1      -2.267   5.580  -5.986  0.00  0.00    -0.001 A 
ATOM      4  C3  UNL d   1      -0.928   5.976  -5.993  0.00  0.00     0.003 A 
ATOM      5  C4  UNL d   1       0.084   5.019  -6.000  0.00  0.00    -0.005 A 
ATOM      6  C5  UNL d   1      -0.241   3.664  -6.000  0.00  0.00     0.003 A 
ATOM      7  C6  UNL d   1      -1.579   3.266  -5.992  0.00  0.00    -0.001 A 
ENDROOT
TORSDOF 0
ENDMDL
