MODEL 1
REMARK minimizedAffinity -1.80400133
REMARK minimizedRMSD -1
REMARK  0 active torsions:
REMARK  status: ('A' for Active; 'I' for Inactive)
ROOT
ATOM      1  C   UNL d   1       1.113   4.622  -5.989  0.00  0.00     0.078 C 
ATOM      2  C1  UNL d   1      -0.385   4.693  -6.000  0.00  0.00    -0.077 A 
ATOM      3  C2  UNL d   1      -1.048   5.926  -5.998  0.00  0.00    -0.001 A 
ATOM      4  C3  UNL d   1      -2.443   5.977  -5.998  0.00  0.00     0.003 A 
ATOM      5  C4  UNL d   1      -3.186   4.799  -6.000  0.00  0.00    -0.005 A 
ATOM      6  C5  UNL d   1      -2.535   3.567  -6.000  0.00  0.00     0.003 A 
ATOM      7  C6  UNL d   1      -1.140   3.514  -5.999  0.00  0.00    -0.001 A 
ENDROOT
TORSDOF 0
ENDMDL
