MODEL 1
REMARK minimizedAffinity -2.40297413
REMARK minimizedRMSD -1
REMARK  0 active torsions:
REMARK  status: ('A' for Active; 'I' for Inactive)
ROOT
ATOM      1  C   UNL d   1       2.383   5.256  -5.999  0.00  0.00     0.078 C 
ATOM      2  C1  UNL d   1       0.995   4.689  -5.991  0.00  0.00    -0.077 A 
ATOM      3  C2  UNL d   1       0.781   3.305  -5.994  0.00  0.00    -0.001 A 
ATOM      4  C3  UNL d   1      -0.517   2.791  -5.997  0.00  0.00     0.003 A 
ATOM      5  C4  UNL d   1      -1.611   3.655  -5.999  0.00  0.00    -0.005 A 
ATOM      6  C5  UNL d   1      -1.408   5.033  -5.999  0.00  0.00     0.003 A 
ATOM      7  C6  UNL d   1      -0.111   5.548  -5.996  0.00  0.00    -0.001 A 
ENDROOT
TORSDOF 0
ENDMDL
