MODEL 1
REMARK minimizedAffinity -3.00610471
REMARK minimizedRMSD -1
REMARK  0 active torsions:
REMARK  status: ('A' for Active; 'I' for Inactive)
ROOT
ATOM      1  C   UNL d   1       0.629   4.799  -5.999  0.00  0.00     0.078 C 
ATOM      2  C1  UNL d   1      -0.850   4.551  -5.990  0.00  0.00    -0.077 A 
ATOM      3  C2  UNL d   1      -1.363   3.248  -5.999  0.00  0.00    -0.001 A 
ATOM      4  C3  UNL d   1      -2.742   3.032  -6.000  0.00  0.00     0.003 A 
ATOM      5  C4  UNL d   1      -3.620   4.115  -5.994  0.00  0.00    -0.005 A 
ATOM      6  C5  UNL d   1      -3.119   5.415  -5.987  0.00  0.00     0.003 A 
ATOM      7  C6  UNL d   1      -1.740   5.633  -5.986  0.00  0.00    -0.001 A 
ENDROOT
TORSDOF 0
ENDMDL
