MODEL 1
REMARK minimizedAffinity -1.4332664
REMARK minimizedRMSD -1
REMARK  0 active torsions:
REMARK  status: ('A' for Active; 'I' for Inactive)
ROOT
ATOM      1  C   UNL d   1      -2.531   2.797  -5.976  0.00  0.00     0.078 C 
ATOM      2  C1  UNL d   1      -1.271   3.610  -5.991  0.00  0.00    -0.077 A 
ATOM      3  C2  UNL d   1      -0.014   2.992  -5.995  0.00  0.00    -0.001 A 
ATOM      4  C3  UNL d   1       1.151   3.762  -5.998  0.00  0.00     0.003 A 
ATOM      5  C4  UNL d   1       1.070   5.153  -5.997  0.00  0.00    -0.005 A 
ATOM      6  C5  UNL d   1      -0.176   5.776  -5.992  0.00  0.00     0.003 A 
ATOM      7  C6  UNL d   1      -1.342   5.009  -5.988  0.00  0.00    -0.001 A 
ENDROOT
TORSDOF 0
ENDMDL
