MODEL 1
REMARK minimizedAffinity -2.16954231
REMARK minimizedRMSD -1
REMARK  0 active torsions:
REMARK  status: ('A' for Active; 'I' for Inactive)
ROOT
ATOM      1  C   UNL d   1       1.435   3.131  -5.999  0.00  0.00     0.078 C 
ATOM      2  C1  UNL d   1      -0.003   3.556  -5.992  0.00  0.00    -0.077 A 
ATOM      3  C2  UNL d   1      -1.035   2.610  -5.996  0.00  0.00    -0.001 A 
ATOM      4  C3  UNL d   1      -2.369   3.020  -6.000  0.00  0.00     0.003 A 
ATOM      5  C4  UNL d   1      -2.684   4.377  -6.000  0.00  0.00    -0.005 A 
ATOM      6  C5  UNL d   1      -1.664   5.326  -5.998  0.00  0.00     0.003 A 
ATOM      7  C6  UNL d   1      -0.329   4.918  -5.994  0.00  0.00    -0.001 A 
ENDROOT
TORSDOF 0
ENDMDL
