MODEL 1
REMARK minimizedAffinity -1.88769305
REMARK minimizedRMSD -1
REMARK  0 active torsions:
REMARK  status: ('A' for Active; 'I' for Inactive)
ROOT
ATOM      1  C   UNL d   1       0.995   4.394  -6.000  0.00  0.00     0.078 C 
ATOM      2  C1  UNL d   1      -0.502   4.304  -5.992  0.00  0.00    -0.077 A 
ATOM      3  C2  UNL d   1      -1.150   3.063  -5.996  0.00  0.00    -0.001 A 
ATOM      4  C3  UNL d   1      -2.544   2.994  -5.998  0.00  0.00     0.003 A 
ATOM      5  C4  UNL d   1      -3.302   4.163  -5.999  0.00  0.00    -0.005 A 
ATOM      6  C5  UNL d   1      -2.666   5.403  -5.998  0.00  0.00     0.003 A 
ATOM      7  C6  UNL d   1      -1.272   5.474  -5.995  0.00  0.00    -0.001 A 
ENDROOT
TORSDOF 0
ENDMDL
