MODEL 1
REMARK minimizedAffinity -2.66014981
REMARK minimizedRMSD -1
REMARK  0 active torsions:
REMARK  status: ('A' for Active; 'I' for Inactive)
ROOT
ATOM      1  C   UNL d   1       0.689   4.909  -5.999  0.00  0.00     0.078 C 
ATOM      2  C1  UNL d   1      -0.793   4.675  -5.996  0.00  0.00    -0.077 A 
ATOM      3  C2  UNL d   1      -1.692   5.748  -5.995  0.00  0.00    -0.001 A 
ATOM      4  C3  UNL d   1      -3.068   5.515  -5.982  0.00  0.00     0.003 A 
ATOM      5  C4  UNL d   1      -3.557   4.211  -5.969  0.00  0.00    -0.005 A 
ATOM      6  C5  UNL d   1      -2.670   3.137  -5.968  0.00  0.00     0.003 A 
ATOM      7  C6  UNL d   1      -1.293   3.367  -5.980  0.00  0.00    -0.001 A 
ENDROOT
TORSDOF 0
ENDMDL
