MODEL 1
REMARK minimizedAffinity -3.05835176
REMARK minimizedRMSD -1
REMARK  0 active torsions:
REMARK  status: ('A' for Active; 'I' for Inactive)
ROOT
ATOM      1  C   UNL d   1       0.803   2.421  -6.000  0.00  0.00     0.078 C 
ATOM      2  C1  UNL d   1      -0.304   3.432  -5.993  0.00  0.00    -0.077 A 
ATOM      3  C2  UNL d   1      -1.646   3.032  -5.997  0.00  0.00    -0.001 A 
ATOM      4  C3  UNL d   1      -2.666   3.985  -6.000  0.00  0.00     0.003 A 
ATOM      5  C4  UNL d   1      -2.355   5.343  -6.000  0.00  0.00    -0.005 A 
ATOM      6  C5  UNL d   1      -1.023   5.750  -5.997  0.00  0.00     0.003 A 
ATOM      7  C6  UNL d   1      -0.001   4.799  -5.995  0.00  0.00    -0.001 A 
ENDROOT
TORSDOF 0
ENDMDL
