MODEL 1
REMARK minimizedAffinity -3.45757484
REMARK minimizedRMSD -1
REMARK  0 active torsions:
REMARK  status: ('A' for Active; 'I' for Inactive)
ROOT
ATOM      1  C   UNL d   1      -1.186   3.425  -5.988  0.00  0.00     0.078 C 
ATOM      2  C1  UNL d   1       0.283   3.726  -5.999  0.00  0.00    -0.077 A 
ATOM      3  C2  UNL d   1       1.231   2.696  -5.998  0.00  0.00    -0.001 A 
ATOM      4  C3  UNL d   1       2.595   2.992  -5.999  0.00  0.00     0.003 A 
ATOM      5  C4  UNL d   1       3.024   4.317  -5.999  0.00  0.00    -0.005 A 
ATOM      6  C5  UNL d   1       2.088   5.350  -5.998  0.00  0.00     0.003 A 
ATOM      7  C6  UNL d   1       0.723   5.056  -5.997  0.00  0.00    -0.001 A 
ENDROOT
TORSDOF 0
ENDMDL
