MODEL 1
REMARK minimizedAffinity -2.32945871
REMARK minimizedRMSD -1
REMARK  0 active torsions:
REMARK  status: ('A' for Active; 'I' for Inactive)
ROOT
ATOM      1  C   UNL d   1       1.990   4.398  -6.000  0.00  0.00     0.078 C 
ATOM      2  C1  UNL d   1       0.508   4.173  -5.996  0.00  0.00    -0.077 A 
ATOM      3  C2  UNL d   1      -0.385   5.251  -5.977  0.00  0.00    -0.001 A 
ATOM      4  C3  UNL d   1      -1.763   5.026  -5.964  0.00  0.00     0.003 A 
ATOM      5  C4  UNL d   1      -2.260   3.724  -5.969  0.00  0.00    -0.005 A 
ATOM      6  C5  UNL d   1      -1.378   2.645  -5.987  0.00  0.00     0.003 A 
ATOM      7  C6  UNL d   1      -0.001   2.868  -5.999  0.00  0.00    -0.001 A 
ENDROOT
TORSDOF 0
ENDMDL
