MODEL 1
REMARK minimizedAffinity -3.41369939
REMARK minimizedRMSD -1
REMARK  0 active torsions:
REMARK  status: ('A' for Active; 'I' for Inactive)
ROOT
ATOM      1  C   UNL d   1       0.654   2.660  -5.979  0.00  0.00     0.078 C 
ATOM      2  C1  UNL d   1      -0.567   3.531  -5.994  0.00  0.00    -0.077 A 
ATOM      3  C2  UNL d   1      -0.457   4.927  -5.995  0.00  0.00    -0.001 A 
ATOM      4  C3  UNL d   1      -1.602   5.726  -5.999  0.00  0.00     0.003 A 
ATOM      5  C4  UNL d   1      -2.865   5.137  -6.000  0.00  0.00    -0.005 A 
ATOM      6  C5  UNL d   1      -2.985   3.749  -5.996  0.00  0.00     0.003 A 
ATOM      7  C6  UNL d   1      -1.841   2.949  -5.993  0.00  0.00    -0.001 A 
ENDROOT
TORSDOF 0
ENDMDL
