MODEL 1
REMARK minimizedAffinity 0.979452074
REMARK minimizedRMSD -1
REMARK  0 active torsions:
REMARK  status: ('A' for Active; 'I' for Inactive)
ROOT
ATOM      1  C   UNL d   1       2.622   4.863  -5.997  0.00  0.00     0.078 C 
ATOM      2  C1  UNL d   1       1.411   3.980  -5.990  0.00  0.00    -0.077 A 
ATOM      3  C2  UNL d   1       1.535   2.585  -5.996  0.00  0.00    -0.001 A 
ATOM      4  C3  UNL d   1       0.398   1.775  -5.998  0.00  0.00     0.003 A 
ATOM      5  C4  UNL d   1      -0.871   2.351  -5.996  0.00  0.00    -0.005 A 
ATOM      6  C5  UNL d   1      -1.005   3.737  -5.992  0.00  0.00     0.003 A 
ATOM      7  C6  UNL d   1       0.131   4.549  -5.990  0.00  0.00    -0.001 A 
ENDROOT
TORSDOF 0
ENDMDL
