MODEL 1
REMARK minimizedAffinity -0.19816798
REMARK minimizedRMSD -1
REMARK  0 active torsions:
REMARK  status: ('A' for Active; 'I' for Inactive)
ROOT
ATOM      1  C   UNL d   1       3.450   5.893  -5.932  0.00  0.00     0.078 C 
ATOM      2  C1  UNL d   1       2.109   5.221  -5.944  0.00  0.00    -0.077 A 
ATOM      3  C2  UNL d   1       2.001   3.825  -5.966  0.00  0.00    -0.001 A 
ATOM      4  C3  UNL d   1       0.746   3.215  -5.987  0.00  0.00     0.003 A 
ATOM      5  C4  UNL d   1      -0.410   3.992  -5.988  0.00  0.00    -0.005 A 
ATOM      6  C5  UNL d   1      -0.313   5.381  -5.970  0.00  0.00     0.003 A 
ATOM      7  C6  UNL d   1       0.941   5.994  -5.948  0.00  0.00    -0.001 A 
ENDROOT
TORSDOF 0
ENDMDL
