MODEL 1
REMARK minimizedAffinity -4.19242001
REMARK minimizedRMSD -1
REMARK  1 active torsions:
REMARK  status: ('A' for Active; 'I' for Inactive)
REMARK    1  A    between atoms: N_2  and  C1_3 
ROOT
ATOM      1  C1  UNL d   1       0.315  -1.392  -0.751  0.00  0.00     0.143 A 
ATOM      2  C2  UNL d   1       0.559  -0.900   0.536  0.00  0.00    -0.057 A 
ATOM      3  C3  UNL d   1       0.464   0.467   0.821  0.00  0.00     0.033 A 
ATOM      4  C4  UNL d   1       0.150   1.373  -0.186  0.00  0.00    -0.042 A 
ATOM      5  C5  UNL d   1      -0.073   0.910  -1.478  0.00  0.00     0.033 A 
ATOM      6  C6  UNL d   1       0.018  -0.458  -1.755  0.00  0.00    -0.057 A 
ENDROOT
BRANCH   1   7
ATOM      7  N   UNL d   1       0.490  -2.728  -1.119  0.00  0.00    -0.732 N 
ATOM      8  C   UNL d   1      -0.648  -3.612  -1.251  0.00  0.00     0.284 C 
ATOM      9  H3  UNL d   1       1.191  -2.842  -1.847  0.00  0.00     0.395 HD
ENDBRANCH   1   7
TORSDOF 1
ENDMDL
