MODEL 1
REMARK minimizedAffinity -2.77362657
REMARK minimizedRMSD -1
REMARK  1 active torsions:
REMARK  status: ('A' for Active; 'I' for Inactive)
REMARK    1  A    between atoms: N_2  and  C1_3 
ROOT
ATOM      1  C1  UNL d   1      -0.079  -1.390  -0.639  0.00  0.00     0.143 A 
ATOM      2  C2  UNL d   1       0.976  -2.085  -1.241  0.00  0.00    -0.057 A 
ATOM      3  C3  UNL d   1       0.793  -3.369  -1.768  0.00  0.00     0.033 A 
ATOM      4  C4  UNL d   1      -0.446  -3.995  -1.675  0.00  0.00    -0.042 A 
ATOM      5  C5  UNL d   1      -1.502  -3.334  -1.058  0.00  0.00     0.033 A 
ATOM      6  C6  UNL d   1      -1.315  -2.049  -0.541  0.00  0.00    -0.057 A 
ENDROOT
BRANCH   1   7
ATOM      7  N   UNL d   1       0.064  -0.151  -0.010  0.00  0.00    -0.732 N 
ATOM      8  C   UNL d   1       0.254  -0.070   1.423  0.00  0.00     0.284 C 
ATOM      9  H3  UNL d   1       0.646   0.491  -0.543  0.00  0.00     0.395 HD
ENDBRANCH   1   7
TORSDOF 1
ENDMDL
