MODEL 1
REMARK minimizedAffinity -5.39407682
REMARK minimizedRMSD -1
REMARK  1 active torsions:
REMARK  status: ('A' for Active; 'I' for Inactive)
REMARK    1  A    between atoms: N_2  and  C1_3 
ROOT
ATOM      1  C1  UNL d   1      -0.319   0.847  -0.276  0.00  0.00     0.143 A 
ATOM      2  C2  UNL d   1      -0.501   0.933   1.108  0.00  0.00    -0.057 A 
ATOM      3  C3  UNL d   1      -1.103   2.053   1.693  0.00  0.00     0.033 A 
ATOM      4  C4  UNL d   1      -1.510   3.124   0.904  0.00  0.00    -0.042 A 
ATOM      5  C5  UNL d   1      -1.316   3.071  -0.472  0.00  0.00     0.033 A 
ATOM      6  C6  UNL d   1      -0.720   1.947  -1.051  0.00  0.00    -0.057 A 
ENDROOT
BRANCH   1   7
ATOM      7  N   UNL d   1       0.362  -0.196  -0.908  0.00  0.00    -0.732 N 
ATOM      8  C   UNL d   1       0.368  -1.526  -0.337  0.00  0.00     0.284 C 
ATOM      9  H3  UNL d   1       0.248  -0.178  -1.919  0.00  0.00     0.395 HD
ENDBRANCH   1   7
TORSDOF 1
ENDMDL
