MODEL 1
REMARK minimizedAffinity -1.05380809
REMARK minimizedRMSD -1
REMARK  1 active torsions:
REMARK  status: ('A' for Active; 'I' for Inactive)
REMARK    1  A    between atoms: N_2  and  C1_3 
ROOT
ATOM      1  C1  UNL d   1       0.460  -0.435  -0.286  0.00  0.00     0.143 A 
ATOM      2  C2  UNL d   1      -0.075   0.641  -1.002  0.00  0.00    -0.057 A 
ATOM      3  C3  UNL d   1      -0.410   1.842  -0.365  0.00  0.00     0.033 A 
ATOM      4  C4  UNL d   1      -0.243   1.977   1.010  0.00  0.00    -0.042 A 
ATOM      5  C5  UNL d   1       0.264   0.912   1.745  0.00  0.00     0.033 A 
ATOM      6  C6  UNL d   1       0.603  -0.283   1.102  0.00  0.00    -0.057 A 
ENDROOT
BRANCH   1   7
ATOM      7  N   UNL d   1       0.720  -1.689  -0.846  0.00  0.00    -0.732 N 
ATOM      8  C   UNL d   1      -0.279  -2.734  -0.810  0.00  0.00     0.284 C 
ATOM      9  H3  UNL d   1       1.222  -1.623  -1.729  0.00  0.00     0.395 HD
ENDBRANCH   1   7
TORSDOF 1
ENDMDL
