MODEL 1
REMARK minimizedAffinity -4.84000921
REMARK minimizedRMSD -1
REMARK  1 active torsions:
REMARK  status: ('A' for Active; 'I' for Inactive)
REMARK    1  A    between atoms: N_2  and  C1_3 
ROOT
ATOM      1  C1  UNL d   1      -0.399   0.868  -0.139  0.00  0.00     0.143 A 
ATOM      2  C2  UNL d   1      -0.164   0.901   1.240  0.00  0.00    -0.057 A 
ATOM      3  C3  UNL d   1      -0.581   1.985   2.022  0.00  0.00     0.033 A 
ATOM      4  C4  UNL d   1      -1.218   3.072   1.432  0.00  0.00    -0.042 A 
ATOM      5  C5  UNL d   1      -1.440   3.072   0.060  0.00  0.00     0.033 A 
ATOM      6  C6  UNL d   1      -1.027   1.983  -0.715  0.00  0.00    -0.057 A 
ENDROOT
BRANCH   1   7
ATOM      7  N   UNL d   1       0.078  -0.136  -0.985  0.00  0.00    -0.732 N 
ATOM      8  C   UNL d   1      -0.074  -1.531  -0.634  0.00  0.00     0.284 C 
ATOM      9  H3  UNL d   1      -0.098   0.068  -1.967  0.00  0.00     0.395 HD
ENDBRANCH   1   7
TORSDOF 1
ENDMDL
