MODEL 1
REMARK minimizedAffinity -5.27931976
REMARK minimizedRMSD -1
REMARK  1 active torsions:
REMARK  status: ('A' for Active; 'I' for Inactive)
REMARK    1  A    between atoms: N_2  and  C1_3 
ROOT
ATOM      1  C1  UNL d   1      -0.006   0.916  -0.390  0.00  0.00     0.143 A 
ATOM      2  C2  UNL d   1      -0.209   0.904   0.994  0.00  0.00    -0.057 A 
ATOM      3  C3  UNL d   1      -0.912   1.931   1.634  0.00  0.00     0.033 A 
ATOM      4  C4  UNL d   1      -1.402   3.008   0.902  0.00  0.00    -0.042 A 
ATOM      5  C5  UNL d   1      -1.190   3.054  -0.472  0.00  0.00     0.033 A 
ATOM      6  C6  UNL d   1      -0.493   2.021  -1.106  0.00  0.00    -0.057 A 
ENDROOT
BRANCH   1   7
ATOM      7  N   UNL d   1       0.770  -0.026  -1.071  0.00  0.00    -0.732 N 
ATOM      8  C   UNL d   1       0.404  -1.426  -1.064  0.00  0.00     0.284 C 
ATOM      9  H3  UNL d   1       1.090   0.316  -1.974  0.00  0.00     0.395 HD
ENDBRANCH   1   7
TORSDOF 1
ENDMDL
