MODEL 1
REMARK minimizedAffinity 3.3528707
REMARK minimizedRMSD -1
REMARK  1 active torsions:
REMARK  status: ('A' for Active; 'I' for Inactive)
REMARK    1  A    between atoms: N_2  and  C1_3 
ROOT
ATOM      1  C1  UNL d   1      -0.025   1.462   0.325  0.00  0.00     0.143 A 
ATOM      2  C2  UNL d   1      -0.194   1.062   1.655  0.00  0.00    -0.057 A 
ATOM      3  C3  UNL d   1      -0.016   1.963   2.712  0.00  0.00     0.033 A 
ATOM      4  C4  UNL d   1       0.365   3.276   2.458  0.00  0.00    -0.042 A 
ATOM      5  C5  UNL d   1       0.563   3.689   1.145  0.00  0.00     0.033 A 
ATOM      6  C6  UNL d   1       0.377   2.786   0.093  0.00  0.00    -0.057 A 
ENDROOT
BRANCH   1   7
ATOM      7  N   UNL d   1      -0.091   0.589  -0.764  0.00  0.00    -0.732 N 
ATOM      8  C   UNL d   1       0.584  -0.691  -0.725  0.00  0.00     0.284 C 
ATOM      9  H3  UNL d   1      -1.019   0.557  -1.180  0.00  0.00     0.395 HD
ENDBRANCH   1   7
TORSDOF 1
ENDMDL
