MODEL 1
REMARK minimizedAffinity -4.71877432
REMARK minimizedRMSD -1
REMARK  2 active torsions:
REMARK  status: ('A' for Active; 'I' for Inactive)
REMARK    1  A    between atoms: C1_2  and  C2_3 
REMARK    2  A    between atoms: C2_3  and  C3_4 
ROOT
ATOM      1  C3  UNL d   1      -0.944   0.083  -0.171  0.00  0.00    -0.075 A 
ATOM      2  C4  UNL d   1      -0.601  -1.228  -0.532  0.00  0.00     0.002 A 
ATOM      3  C5  UNL d   1       0.717  -1.673  -0.417  0.00  0.00     0.002 A 
ATOM      4  C6  UNL d   1       1.707  -0.812   0.052  0.00  0.00    -0.004 A 
ATOM      5  C7  UNL d   1       1.381   0.497   0.398  0.00  0.00     0.002 A 
ATOM      6  C8  UNL d   1       0.063   0.944   0.288  0.00  0.00     0.002 A 
ENDROOT
BRANCH   1   7
ATOM      7  C2  UNL d   1      -2.373   0.562  -0.266  0.00  0.00     0.056 C 
BRANCH   7   8
ATOM      8  C1  UNL d   1      -2.922   1.148   1.039  0.00  0.00     0.007 C 
ATOM      9  C   UNL d   1      -4.153   0.415   1.556  0.00  0.00     0.009 C 
ENDBRANCH   7   8
ENDBRANCH   1   7
TORSDOF 2
ENDMDL
