MODEL 1
REMARK minimizedAffinity -4.94527817
REMARK minimizedRMSD -1
REMARK  2 active torsions:
REMARK  status: ('A' for Active; 'I' for Inactive)
REMARK    1  A    between atoms: C1_2  and  C2_3 
REMARK    2  A    between atoms: C2_3  and  C3_4 
ROOT
ATOM      1  C3  UNL d   1      -0.646   0.205  -0.064  0.00  0.00    -0.075 A 
ATOM      2  C4  UNL d   1      -0.735  -1.146  -0.430  0.00  0.00     0.002 A 
ATOM      3  C5  UNL d   1       0.376  -1.983  -0.323  0.00  0.00     0.002 A 
ATOM      4  C6  UNL d   1       1.589  -1.480   0.142  0.00  0.00    -0.004 A 
ATOM      5  C7  UNL d   1       1.693  -0.136   0.493  0.00  0.00     0.002 A 
ATOM      6  C8  UNL d   1       0.582   0.704   0.391  0.00  0.00     0.002 A 
ENDROOT
BRANCH   1   7
ATOM      7  C2  UNL d   1      -1.853   1.110  -0.150  0.00  0.00     0.056 C 
BRANCH   7   8
ATOM      8  C1  UNL d   1      -2.659   1.199   1.150  0.00  0.00     0.007 C 
ATOM      9  C   UNL d   1      -4.095   0.716   1.000  0.00  0.00     0.009 C 
ENDBRANCH   7   8
ENDBRANCH   1   7
TORSDOF 2
ENDMDL
