MODEL 1
REMARK minimizedAffinity -3.22688603
REMARK minimizedRMSD -1
REMARK  2 active torsions:
REMARK  status: ('A' for Active; 'I' for Inactive)
REMARK    1  A    between atoms: C1_2  and  C2_3 
REMARK    2  A    between atoms: C2_3  and  C3_4 
ROOT
ATOM      1  C3  UNL d   1      -1.200   0.201  -0.434  0.00  0.00    -0.075 A 
ATOM      2  C4  UNL d   1      -0.176   1.154  -0.350  0.00  0.00     0.002 A 
ATOM      3  C5  UNL d   1       1.162   0.757  -0.334  0.00  0.00     0.002 A 
ATOM      4  C6  UNL d   1       1.491  -0.595  -0.390  0.00  0.00    -0.004 A 
ATOM      5  C7  UNL d   1       0.481  -1.552  -0.456  0.00  0.00     0.002 A 
ATOM      6  C8  UNL d   1      -0.858  -1.158  -0.477  0.00  0.00     0.002 A 
ENDROOT
BRANCH   1   7
ATOM      7  C2  UNL d   1      -2.649   0.625  -0.482  0.00  0.00     0.056 C 
BRANCH   7   8
ATOM      8  C1  UNL d   1      -3.148   1.287   0.807  0.00  0.00     0.007 C 
ATOM      9  C   UNL d   1      -3.760   0.299   1.791  0.00  0.00     0.009 C 
ENDBRANCH   7   8
ENDBRANCH   1   7
TORSDOF 2
ENDMDL
