MODEL 1
REMARK minimizedAffinity -1.36435997
REMARK minimizedRMSD -1
REMARK  2 active torsions:
REMARK  status: ('A' for Active; 'I' for Inactive)
REMARK    1  A    between atoms: C1_2  and  C2_3 
REMARK    2  A    between atoms: C2_3  and  C3_4 
ROOT
ATOM      1  C3  UNL d   1       0.881   0.089  -0.075  0.00  0.00    -0.075 A 
ATOM      2  C4  UNL d   1       1.894  -0.876   0.015  0.00  0.00     0.002 A 
ATOM      3  C5  UNL d   1       3.186  -0.513   0.399  0.00  0.00     0.002 A 
ATOM      4  C6  UNL d   1       3.483   0.817   0.686  0.00  0.00    -0.004 A 
ATOM      5  C7  UNL d   1       2.488   1.787   0.583  0.00  0.00     0.002 A 
ATOM      6  C8  UNL d   1       1.194   1.426   0.204  0.00  0.00     0.002 A 
ENDROOT
BRANCH   1   7
ATOM      7  C2  UNL d   1      -0.526  -0.301  -0.461  0.00  0.00     0.056 C 
BRANCH   7   8
ATOM      8  C1  UNL d   1      -1.419   0.883  -0.844  0.00  0.00     0.007 C 
ATOM      9  C   UNL d   1      -2.858   0.728  -0.370  0.00  0.00     0.009 C 
ENDBRANCH   7   8
ENDBRANCH   1   7
TORSDOF 2
ENDMDL
