MODEL 1
REMARK minimizedAffinity 17.7556534
REMARK minimizedRMSD -1
REMARK  1 active torsions:
REMARK  status: ('A' for Active; 'I' for Inactive)
REMARK    1  A    between atoms: C1_2  and  C2_3 
ROOT
ATOM      1  C2  UNL d   1       2.496   4.719  -5.465  0.00  0.00    -0.076 A 
ATOM      2  C3  UNL d   1       3.165   3.523  -5.778  0.00  0.00     0.004 A 
ATOM      3  C4  UNL d   1       2.468   2.323  -5.906  0.00  0.00    -0.003 A 
ATOM      4  C5  UNL d   1       1.089   2.300  -5.724  0.00  0.00     0.000 A 
ATOM      5  C6  UNL d   1       0.407   3.480  -5.430  0.00  0.00     0.000 A 
ATOM      6  C7  UNL d   1       1.093   4.701  -5.313  0.00  0.00    -0.073 A 
ATOM      7  C8  UNL d   1       0.307   5.942  -4.989  0.00  0.00     0.078 C 
ENDROOT
BRANCH   1   8
ATOM      8  C1  UNL d   1       3.309   5.985  -5.311  0.00  0.00     0.053 C 
ATOM      9  C   UNL d   1       4.806   5.730  -5.395  0.00  0.00     0.018 C 
ENDBRANCH   1   8
TORSDOF 1
ENDMDL
