MODEL 1
REMARK minimizedAffinity 11.074523
REMARK minimizedRMSD -1
REMARK  1 active torsions:
REMARK  status: ('A' for Active; 'I' for Inactive)
REMARK    1  A    between atoms: C1_2  and  C2_3 
ROOT
ATOM      1  C2  UNL d   1      -1.637  -1.660  -0.787  0.00  0.00    -0.076 A 
ATOM      2  C3  UNL d   1      -2.825  -1.057  -0.338  0.00  0.00     0.004 A 
ATOM      3  C4  UNL d   1      -3.039  -0.815   1.018  0.00  0.00    -0.003 A 
ATOM      4  C5  UNL d   1      -2.068  -1.172   1.947  0.00  0.00     0.000 A 
ATOM      5  C6  UNL d   1      -0.876  -1.755   1.518  0.00  0.00     0.000 A 
ATOM      6  C7  UNL d   1      -0.637  -1.990   0.153  0.00  0.00    -0.073 A 
ATOM      7  C8  UNL d   1       0.664  -2.627  -0.253  0.00  0.00     0.078 C 
ENDROOT
BRANCH   1   8
ATOM      8  C1  UNL d   1      -1.472  -1.922  -2.267  0.00  0.00     0.053 C 
ATOM      9  C   UNL d   1      -2.541  -2.854  -2.816  0.00  0.00     0.018 C 
ENDBRANCH   1   8
TORSDOF 1
ENDMDL
