MODEL 1
REMARK minimizedAffinity 4.28143597
REMARK minimizedRMSD -1
REMARK  1 active torsions:
REMARK  status: ('A' for Active; 'I' for Inactive)
REMARK    1  A    between atoms: C1_2  and  C2_3 
ROOT
ATOM      1  C2  UNL d   1       1.708   4.579  -3.829  0.00  0.00    -0.076 A 
ATOM      2  C3  UNL d   1       2.733   5.294  -3.186  0.00  0.00     0.004 A 
ATOM      3  C4  UNL d   1       3.688   5.995  -3.921  0.00  0.00    -0.003 A 
ATOM      4  C5  UNL d   1       3.632   5.993  -5.310  0.00  0.00     0.000 A 
ATOM      5  C6  UNL d   1       2.611   5.303  -5.964  0.00  0.00     0.000 A 
ATOM      6  C7  UNL d   1       1.631   4.605  -5.238  0.00  0.00    -0.073 A 
ATOM      7  C8  UNL d   1       0.556   3.874  -5.994  0.00  0.00     0.078 C 
ENDROOT
BRANCH   1   8
ATOM      8  C1  UNL d   1       0.716   3.815  -2.980  0.00  0.00     0.053 C 
ATOM      9  C   UNL d   1      -0.582   4.579  -2.772  0.00  0.00     0.018 C 
ENDBRANCH   1   8
TORSDOF 1
ENDMDL
