MODEL 1
REMARK minimizedAffinity -2.33340502
REMARK minimizedRMSD -1
REMARK  1 active torsions:
REMARK  status: ('A' for Active; 'I' for Inactive)
REMARK    1  A    between atoms: C1_2  and  C2_3 
ROOT
ATOM      1  C2  UNL d   1      -2.791  -3.371  -3.305  0.00  0.00    -0.076 A 
ATOM      2  C3  UNL d   1      -3.609  -4.098  -2.423  0.00  0.00     0.004 A 
ATOM      3  C4  UNL d   1      -3.806  -3.670  -1.111  0.00  0.00    -0.003 A 
ATOM      4  C5  UNL d   1      -3.188  -2.509  -0.660  0.00  0.00     0.000 A 
ATOM      5  C6  UNL d   1      -2.387  -1.766  -1.527  0.00  0.00     0.000 A 
ATOM      6  C7  UNL d   1      -2.191  -2.174  -2.858  0.00  0.00    -0.073 A 
ATOM      7  C8  UNL d   1      -1.313  -1.339  -3.748  0.00  0.00     0.078 C 
ENDROOT
BRANCH   1   8
ATOM      8  C1  UNL d   1      -2.593  -3.898  -4.709  0.00  0.00     0.053 C 
ATOM      9  C   UNL d   1      -3.429  -3.150  -5.735  0.00  0.00     0.018 C 
ENDBRANCH   1   8
TORSDOF 1
ENDMDL
