MODEL 1
REMARK minimizedAffinity 7.03321314
REMARK minimizedRMSD -1
REMARK  1 active torsions:
REMARK  status: ('A' for Active; 'I' for Inactive)
REMARK    1  A    between atoms: C1_2  and  C2_3 
ROOT
ATOM      1  C2  UNL d   1       1.925  -0.108   2.748  0.00  0.00    -0.076 A 
ATOM      2  C3  UNL d   1       1.883   0.057   1.352  0.00  0.00     0.004 A 
ATOM      3  C4  UNL d   1       2.979  -0.273   0.557  0.00  0.00    -0.003 A 
ATOM      4  C5  UNL d   1       4.135  -0.775   1.145  0.00  0.00     0.000 A 
ATOM      5  C6  UNL d   1       4.189  -0.961   2.526  0.00  0.00     0.000 A 
ATOM      6  C7  UNL d   1       3.087  -0.649   3.340  0.00  0.00    -0.073 A 
ATOM      7  C8  UNL d   1       3.201  -0.864   4.824  0.00  0.00     0.078 C 
ENDROOT
BRANCH   1   8
ATOM      8  C1  UNL d   1       0.716   0.293   3.561  0.00  0.00     0.053 C 
ATOM      9  C   UNL d   1      -0.428  -0.700   3.433  0.00  0.00     0.018 C 
ENDBRANCH   1   8
TORSDOF 1
ENDMDL
