MODEL 1
REMARK minimizedAffinity 6.40830851
REMARK minimizedRMSD -1
REMARK  1 active torsions:
REMARK  status: ('A' for Active; 'I' for Inactive)
REMARK    1  A    between atoms: C1_2  and  C2_3 
ROOT
ATOM      1  C2  UNL d   1       3.218   3.460  -5.250  0.00  0.00    -0.076 A 
ATOM      2  C3  UNL d   1       2.817   4.579  -6.000  0.00  0.00     0.004 A 
ATOM      3  C4  UNL d   1       2.716   5.839  -5.412  0.00  0.00    -0.003 A 
ATOM      4  C5  UNL d   1       3.015   5.999  -4.063  0.00  0.00     0.000 A 
ATOM      5  C6  UNL d   1       3.431   4.904  -3.308  0.00  0.00     0.000 A 
ATOM      6  C7  UNL d   1       3.553   3.630  -3.889  0.00  0.00    -0.073 A 
ATOM      7  C8  UNL d   1       4.000   2.482  -3.026  0.00  0.00     0.078 C 
ENDROOT
BRANCH   1   8
ATOM      8  C1  UNL d   1       3.283   2.114  -5.935  0.00  0.00     0.053 C 
ATOM      9  C   UNL d   1       4.698   1.560  -5.999  0.00  0.00     0.018 C 
ENDBRANCH   1   8
TORSDOF 1
ENDMDL
