MODEL 1
REMARK minimizedAffinity 7.16135979
REMARK minimizedRMSD -1
REMARK  1 active torsions:
REMARK  status: ('A' for Active; 'I' for Inactive)
REMARK    1  A    between atoms: C1_2  and  C2_3 
ROOT
ATOM      1  C2  UNL d   1      -1.349  -2.179   0.824  0.00  0.00    -0.076 A 
ATOM      2  C3  UNL d   1      -2.730  -1.983   0.649  0.00  0.00     0.004 A 
ATOM      3  C4  UNL d   1      -3.340  -2.235  -0.579  0.00  0.00    -0.003 A 
ATOM      4  C5  UNL d   1      -2.579  -2.687  -1.651  0.00  0.00     0.000 A 
ATOM      5  C6  UNL d   1      -1.211  -2.903  -1.491  0.00  0.00     0.000 A 
ATOM      6  C7  UNL d   1      -0.583  -2.670  -0.255  0.00  0.00    -0.073 A 
ATOM      7  C8  UNL d   1       0.897  -2.915  -0.140  0.00  0.00     0.078 C 
ENDROOT
BRANCH   1   8
ATOM      8  C1  UNL d   1      -0.737  -1.863   2.170  0.00  0.00     0.053 C 
ATOM      9  C   UNL d   1      -1.776  -1.793   3.279  0.00  0.00     0.018 C 
ENDBRANCH   1   8
TORSDOF 1
ENDMDL
