MODEL 1
REMARK minimizedAffinity 22.6685715
REMARK minimizedRMSD -1
REMARK  1 active torsions:
REMARK  status: ('A' for Active; 'I' for Inactive)
REMARK    1  A    between atoms: C1_2  and  C2_3 
ROOT
ATOM      1  C2  UNL d   1      -3.564  -1.976   4.314  0.00  0.00    -0.076 A 
ATOM      2  C3  UNL d   1      -2.804  -0.807   4.136  0.00  0.00     0.004 A 
ATOM      3  C4  UNL d   1      -1.624  -0.824   3.395  0.00  0.00    -0.003 A 
ATOM      4  C5  UNL d   1      -1.185  -2.010   2.818  0.00  0.00     0.000 A 
ATOM      5  C6  UNL d   1      -1.935  -3.176   2.969  0.00  0.00     0.000 A 
ATOM      6  C7  UNL d   1      -3.136  -3.172   3.700  0.00  0.00    -0.073 A 
ATOM      7  C8  UNL d   1      -3.902  -4.460   3.836  0.00  0.00     0.078 C 
ENDROOT
BRANCH   1   8
ATOM      8  C1  UNL d   1      -4.821  -1.903   5.152  0.00  0.00     0.053 C 
ATOM      9  C   UNL d   1      -4.911  -0.615   5.955  0.00  0.00     0.018 C 
ENDBRANCH   1   8
TORSDOF 1
ENDMDL
