MODEL 1
REMARK minimizedAffinity 8.2039547
REMARK minimizedRMSD -1
REMARK  1 active torsions:
REMARK  status: ('A' for Active; 'I' for Inactive)
REMARK    1  A    between atoms: C1_2  and  C2_3 
ROOT
ATOM      1  C2  UNL d   1      -1.643  -3.687   2.549  0.00  0.00    -0.076 A 
ATOM      2  C3  UNL d   1      -1.001  -4.689   1.801  0.00  0.00     0.004 A 
ATOM      3  C4  UNL d   1      -0.169  -4.365   0.731  0.00  0.00    -0.003 A 
ATOM      4  C5  UNL d   1       0.035  -3.032   0.391  0.00  0.00     0.000 A 
ATOM      5  C6  UNL d   1      -0.580  -2.024   1.133  0.00  0.00     0.000 A 
ATOM      6  C7  UNL d   1      -1.408  -2.333   2.225  0.00  0.00    -0.073 A 
ATOM      7  C8  UNL d   1      -2.051  -1.206   2.986  0.00  0.00     0.078 C 
ENDROOT
BRANCH   1   8
ATOM      8  C1  UNL d   1      -2.555  -4.100   3.682  0.00  0.00     0.053 C 
ATOM      9  C   UNL d   1      -2.577  -5.606   3.893  0.00  0.00     0.018 C 
ENDBRANCH   1   8
TORSDOF 1
ENDMDL
