MODEL 1
REMARK minimizedAffinity 5.8601737
REMARK minimizedRMSD -1
REMARK  1 active torsions:
REMARK  status: ('A' for Active; 'I' for Inactive)
REMARK    1  A    between atoms: C1_2  and  C2_3 
ROOT
ATOM      1  C2  UNL d   1      -2.591  -2.167  -2.277  0.00  0.00    -0.076 A 
ATOM      2  C3  UNL d   1      -1.575  -2.201  -3.248  0.00  0.00     0.004 A 
ATOM      3  C4  UNL d   1      -1.806  -2.745  -4.510  0.00  0.00    -0.003 A 
ATOM      4  C5  UNL d   1      -3.058  -3.264  -4.822  0.00  0.00     0.000 A 
ATOM      5  C6  UNL d   1      -4.083  -3.222  -3.877  0.00  0.00     0.000 A 
ATOM      6  C7  UNL d   1      -3.871  -2.662  -2.606  0.00  0.00    -0.073 A 
ATOM      7  C8  UNL d   1      -5.010  -2.649  -1.623  0.00  0.00     0.078 C 
ENDROOT
BRANCH   1   8
ATOM      8  C1  UNL d   1      -2.273  -1.589  -0.917  0.00  0.00     0.053 C 
ATOM      9  C   UNL d   1      -1.012  -2.184  -0.311  0.00  0.00     0.018 C 
ENDBRANCH   1   8
TORSDOF 1
ENDMDL
