MODEL 1
REMARK minimizedAffinity 0.284338504
REMARK minimizedRMSD -1
REMARK  1 active torsions:
REMARK  status: ('A' for Active; 'I' for Inactive)
REMARK    1  A    between atoms: C1_2  and  C2_3 
ROOT
ATOM      1  C2  UNL d   1      -0.423   1.602  -1.283  0.00  0.00    -0.073 A 
ATOM      2  C3  UNL d   1      -1.429   1.340  -0.346  0.00  0.00    -0.002 A 
ATOM      3  C4  UNL d   1      -1.340   0.225   0.490  0.00  0.00     0.004 A 
ATOM      4  C5  UNL d   1      -0.244  -0.633   0.402  0.00  0.00    -0.004 A 
ATOM      5  C6  UNL d   1       0.777  -0.380  -0.519  0.00  0.00    -0.075 A 
ATOM      6  C7  UNL d   1       1.962  -1.295  -0.627  0.00  0.00     0.076 C 
ATOM      7  C8  UNL d   1       0.680   0.739  -1.357  0.00  0.00     0.001 A 
ENDROOT
BRANCH   1   8
ATOM      8  C1  UNL d   1      -0.511   2.808  -2.182  0.00  0.00     0.053 C 
ATOM      9  C   UNL d   1      -1.866   2.914  -2.862  0.00  0.00     0.018 C 
ENDBRANCH   1   8
TORSDOF 1
ENDMDL
