MODEL 1
REMARK minimizedAffinity 8.19930458
REMARK minimizedRMSD -1
REMARK  1 active torsions:
REMARK  status: ('A' for Active; 'I' for Inactive)
REMARK    1  A    between atoms: C1_2  and  C2_3 
ROOT
ATOM      1  C2  UNL d   1      -4.309   2.078  -3.609  0.00  0.00    -0.073 A 
ATOM      2  C3  UNL d   1      -5.649   1.930  -3.986  0.00  0.00    -0.002 A 
ATOM      3  C4  UNL d   1      -5.998   1.054  -5.015  0.00  0.00     0.004 A 
ATOM      4  C5  UNL d   1      -5.015   0.313  -5.671  0.00  0.00    -0.004 A 
ATOM      5  C6  UNL d   1      -3.672   0.439  -5.301  0.00  0.00    -0.075 A 
ATOM      6  C7  UNL d   1      -2.602  -0.348  -5.998  0.00  0.00     0.076 C 
ATOM      7  C8  UNL d   1      -3.329   1.323  -4.269  0.00  0.00     0.001 A 
ENDROOT
BRANCH   1   8
ATOM      8  C1  UNL d   1      -3.928   3.018  -2.495  0.00  0.00     0.053 C 
ATOM      9  C   UNL d   1      -2.442   3.341  -2.505  0.00  0.00     0.018 C 
ENDBRANCH   1   8
TORSDOF 1
ENDMDL
