MODEL 1
REMARK minimizedAffinity -2.85648561
REMARK minimizedRMSD -1
REMARK  1 active torsions:
REMARK  status: ('A' for Active; 'I' for Inactive)
REMARK    1  A    between atoms: C1_2  and  C2_3 
ROOT
ATOM      1  C2  UNL d   1      -0.480  -0.003  -0.952  0.00  0.00    -0.073 A 
ATOM      2  C3  UNL d   1       0.516  -0.630  -1.709  0.00  0.00    -0.002 A 
ATOM      3  C4  UNL d   1       1.472  -1.435  -1.089  0.00  0.00     0.004 A 
ATOM      4  C5  UNL d   1       1.439  -1.627   0.292  0.00  0.00    -0.004 A 
ATOM      5  C6  UNL d   1       0.444  -1.019   1.065  0.00  0.00    -0.075 A 
ATOM      6  C7  UNL d   1       0.396  -1.215   2.552  0.00  0.00     0.076 C 
ATOM      7  C8  UNL d   1      -0.511  -0.210   0.435  0.00  0.00     0.001 A 
ENDROOT
BRANCH   1   8
ATOM      8  C1  UNL d   1      -1.518   0.862  -1.618  0.00  0.00     0.053 C 
ATOM      9  C   UNL d   1      -0.918   2.137  -2.188  0.00  0.00     0.018 C 
ENDBRANCH   1   8
TORSDOF 1
ENDMDL
