MODEL 1
REMARK minimizedAffinity -4.75476313
REMARK minimizedRMSD -1
REMARK  1 active torsions:
REMARK  status: ('A' for Active; 'I' for Inactive)
REMARK    1  A    between atoms: C1_2  and  C2_3 
ROOT
ATOM      1  C2  UNL d   1      -0.249   0.336   0.178  0.00  0.00    -0.073 A 
ATOM      2  C3  UNL d   1      -0.855   0.159   1.427  0.00  0.00    -0.002 A 
ATOM      3  C4  UNL d   1      -0.167  -0.475   2.462  0.00  0.00     0.004 A 
ATOM      4  C5  UNL d   1       1.136  -0.932   2.262  0.00  0.00    -0.004 A 
ATOM      5  C6  UNL d   1       1.763  -0.754   1.025  0.00  0.00    -0.075 A 
ATOM      6  C7  UNL d   1       3.163  -1.242   0.792  0.00  0.00     0.076 C 
ATOM      7  C8  UNL d   1       1.064  -0.119  -0.011  0.00  0.00     0.001 A 
ENDROOT
BRANCH   1   8
ATOM      8  C1  UNL d   1      -0.986   1.026  -0.940  0.00  0.00     0.053 C 
ATOM      9  C   UNL d   1      -0.261   2.274  -1.417  0.00  0.00     0.018 C 
ENDBRANCH   1   8
TORSDOF 1
ENDMDL
