MODEL 1
REMARK minimizedAffinity -3.7352922
REMARK minimizedRMSD -1
REMARK  1 active torsions:
REMARK  status: ('A' for Active; 'I' for Inactive)
REMARK    1  A    between atoms: C1_2  and  C2_3 
ROOT
ATOM      1  C2  UNL d   1       0.189  -0.425  -0.667  0.00  0.00    -0.073 A 
ATOM      2  C3  UNL d   1       1.208  -1.143  -1.304  0.00  0.00    -0.002 A 
ATOM      3  C4  UNL d   1       2.227  -1.733  -0.555  0.00  0.00     0.004 A 
ATOM      4  C5  UNL d   1       2.235  -1.618   0.835  0.00  0.00    -0.004 A 
ATOM      5  C6  UNL d   1       1.220  -0.914   1.490  0.00  0.00    -0.075 A 
ATOM      6  C7  UNL d   1       1.215  -0.779   2.984  0.00  0.00     0.076 C 
ATOM      7  C8  UNL d   1       0.201  -0.322   0.731  0.00  0.00     0.001 A 
ENDROOT
BRANCH   1   8
ATOM      8  C1  UNL d   1      -0.917   0.209  -1.470  0.00  0.00     0.053 C 
ATOM      9  C   UNL d   1      -0.617   1.661  -1.807  0.00  0.00     0.018 C 
ENDBRANCH   1   8
TORSDOF 1
ENDMDL
