MODEL 1
REMARK minimizedAffinity 1.59428191
REMARK minimizedRMSD -1
REMARK  0 active torsions:
REMARK  status: ('A' for Active; 'I' for Inactive)
ROOT
ATOM      1  C4' PXY d   1      -1.818  -0.783  -1.002  0.00  0.00     0.077 C 
ATOM      2  C1' PXY d   1      -0.301   1.893   3.892  0.00  0.00     0.077 C 
ATOM      3  C1  PXY d   1      -0.704   1.181   2.616  0.00  0.00    -0.082 A 
ATOM      4  C2  PXY d   1      -0.112   1.499   1.475  0.00  0.00     0.003 A 
ATOM      5  C3  PXY d   1      -0.486   0.887   0.306  0.00  0.00     0.003 A 
ATOM      6  C4  PXY d   1      -1.438  -0.097   0.313  0.00  0.00    -0.082 A 
ATOM      7  C5  PXY d   1      -2.038  -0.434   1.474  0.00  0.00     0.003 A 
ATOM      8  C6  PXY d   1      -1.674   0.227   2.643  0.00  0.00     0.003 A 
ENDROOT
TORSDOF 0
ENDMDL
