MODEL 1
REMARK minimizedAffinity -3.67449212
REMARK minimizedRMSD -1
REMARK  0 active torsions:
REMARK  status: ('A' for Active; 'I' for Inactive)
ROOT
ATOM      1  C4' PXY d   1       2.393   1.890   2.749  0.00  0.00     0.077 C 
ATOM      2  C1' PXY d   1      -2.379  -0.388   0.413  0.00  0.00     0.077 C 
ATOM      3  C1  PXY d   1      -1.135   0.219   1.031  0.00  0.00    -0.082 A 
ATOM      4  C2  PXY d   1       0.050  -0.035   0.500  0.00  0.00     0.003 A 
ATOM      5  C3  PXY d   1       1.189   0.479   1.065  0.00  0.00     0.003 A 
ATOM      6  C4  PXY d   1       1.109   1.306   2.153  0.00  0.00    -0.082 A 
ATOM      7  C5  PXY d   1      -0.097   1.579   2.694  0.00  0.00     0.003 A 
ATOM      8  C6  PXY d   1      -1.237   1.013   2.131  0.00  0.00     0.003 A 
ENDROOT
TORSDOF 0
ENDMDL
