MODEL 1
REMARK minimizedAffinity 0.592045963
REMARK minimizedRMSD -1
REMARK  0 active torsions:
REMARK  status: ('A' for Active; 'I' for Inactive)
ROOT
ATOM      1  C4' PXY d   1       2.823   4.337   0.554  0.00  0.00     0.077 C 
ATOM      2  C1' PXY d   1      -0.370  -0.443  -0.061  0.00  0.00     0.077 C 
ATOM      3  C1  PXY d   1       0.478   0.804   0.102  0.00  0.00    -0.082 A 
ATOM      4  C2  PXY d   1      -0.089   1.934   0.491  0.00  0.00     0.003 A 
ATOM      5  C3  PXY d   1       0.658   3.078   0.612  0.00  0.00     0.003 A 
ATOM      6  C4  PXY d   1       2.008   3.052   0.385  0.00  0.00    -0.082 A 
ATOM      7  C5  PXY d   1       2.595   1.900  -0.002  0.00  0.00     0.003 A 
ATOM      8  C6  PXY d   1       1.813   0.759  -0.159  0.00  0.00     0.003 A 
ENDROOT
TORSDOF 0
ENDMDL
