MODEL 1
REMARK minimizedAffinity -2.10232568
REMARK minimizedRMSD -1
REMARK  0 active torsions:
REMARK  status: ('A' for Active; 'I' for Inactive)
ROOT
ATOM      1  C4' PXY d   1      -2.837   0.202   0.286  0.00  0.00     0.077 C 
ATOM      2  C1' PXY d   1       2.923  -0.180   0.575  0.00  0.00     0.077 C 
ATOM      3  C1  PXY d   1       1.412  -0.075   0.511  0.00  0.00    -0.082 A 
ATOM      4  C2  PXY d   1       0.738  -0.845  -0.327  0.00  0.00     0.003 A 
ATOM      5  C3  PXY d   1      -0.626  -0.741  -0.420  0.00  0.00     0.003 A 
ATOM      6  C4  PXY d   1      -1.312   0.123   0.391  0.00  0.00    -0.082 A 
ATOM      7  C5  PXY d   1      -0.632   0.904   1.256  0.00  0.00     0.003 A 
ATOM      8  C6  PXY d   1       0.756   0.812   1.307  0.00  0.00     0.003 A 
ENDROOT
TORSDOF 0
ENDMDL
