MODEL 1
REMARK minimizedAffinity 1.19728386
REMARK minimizedRMSD -1
REMARK  0 active torsions:
REMARK  status: ('A' for Active; 'I' for Inactive)
ROOT
ATOM      1  C4' PXY d   1      -3.099  -0.301  -0.376  0.00  0.00     0.077 C 
ATOM      2  C1' PXY d   1       2.523  -0.453   0.959  0.00  0.00     0.077 C 
ATOM      3  C1  PXY d   1       1.046  -0.413   0.621  0.00  0.00    -0.082 A 
ATOM      4  C2  PXY d   1       0.620  -0.936  -0.517  0.00  0.00     0.003 A 
ATOM      5  C3  PXY d   1      -0.708  -0.879  -0.853  0.00  0.00     0.003 A 
ATOM      6  C4  PXY d   1      -1.618  -0.328   0.010  0.00  0.00    -0.082 A 
ATOM      7  C5  PXY d   1      -1.193   0.198   1.178  0.00  0.00     0.003 A 
ATOM      8  C6  PXY d   1       0.165   0.167   1.481  0.00  0.00     0.003 A 
ENDROOT
TORSDOF 0
ENDMDL
