MODEL 1
REMARK minimizedAffinity -2.41539192
REMARK minimizedRMSD -1
REMARK  0 active torsions:
REMARK  status: ('A' for Active; 'I' for Inactive)
ROOT
ATOM      1  C4' PXY d   1      -0.031  -1.529  -1.069  0.00  0.00     0.077 C 
ATOM      2  C1' PXY d   1      -0.540   1.665   3.723  0.00  0.00     0.077 C 
ATOM      3  C1  PXY d   1      -0.394   0.830   2.465  0.00  0.00    -0.082 A 
ATOM      4  C2  PXY d   1      -1.453   0.599   1.707  0.00  0.00     0.003 A 
ATOM      5  C3  PXY d   1      -1.345  -0.181   0.584  0.00  0.00     0.003 A 
ATOM      6  C4  PXY d   1      -0.130  -0.684   0.204  0.00  0.00    -0.082 A 
ATOM      7  C5  PXY d   1       0.957  -0.443   0.967  0.00  0.00     0.003 A 
ATOM      8  C6  PXY d   1       0.819   0.316   2.125  0.00  0.00     0.003 A 
ENDROOT
TORSDOF 0
ENDMDL
