MODEL 1
REMARK minimizedAffinity -1.51801348
REMARK minimizedRMSD -1
REMARK  0 active torsions:
REMARK  status: ('A' for Active; 'I' for Inactive)
ROOT
ATOM      1  C4' PXY d   1      -2.568   0.343   0.364  0.00  0.00     0.077 C 
ATOM      2  C1' PXY d   1       2.991  -0.924   1.314  0.00  0.00     0.077 C 
ATOM      3  C1  PXY d   1       1.531  -0.593   1.078  0.00  0.00    -0.082 A 
ATOM      4  C2  PXY d   1       0.999  -0.795  -0.117  0.00  0.00     0.003 A 
ATOM      5  C3  PXY d   1      -0.311  -0.471  -0.357  0.00  0.00     0.003 A 
ATOM      6  C4  PXY d   1      -1.101   0.015   0.651  0.00  0.00    -0.082 A 
ATOM      7  C5  PXY d   1      -0.569   0.214   1.875  0.00  0.00     0.003 A 
ATOM      8  C6  PXY d   1       0.775  -0.083   2.087  0.00  0.00     0.003 A 
ENDROOT
TORSDOF 0
ENDMDL
