MODEL 1
REMARK minimizedAffinity -5.67057419
REMARK minimizedRMSD -1
REMARK  0 active torsions:
REMARK  status: ('A' for Active; 'I' for Inactive)
ROOT
ATOM      1  C4' PXY d   1       0.792  -0.746  -2.381  0.00  0.00     0.077 C 
ATOM      2  C1' PXY d   1       1.779   0.528   3.170  0.00  0.00     0.077 C 
ATOM      3  C1  PXY d   1       1.507   0.193   1.717  0.00  0.00    -0.082 A 
ATOM      4  C2  PXY d   1       2.484  -0.286   0.963  0.00  0.00     0.003 A 
ATOM      5  C3  PXY d   1       2.264  -0.565  -0.362  0.00  0.00     0.003 A 
ATOM      6  C4  PXY d   1       1.018  -0.402  -0.906  0.00  0.00    -0.082 A 
ATOM      7  C5  PXY d   1       0.014   0.076  -0.141  0.00  0.00     0.003 A 
ATOM      8  C6  PXY d   1       0.268   0.391   1.191  0.00  0.00     0.003 A 
ENDROOT
TORSDOF 0
ENDMDL
