MODEL 1
REMARK minimizedAffinity -5.33284044
REMARK minimizedRMSD -1
REMARK  0 active torsions:
REMARK  status: ('A' for Active; 'I' for Inactive)
ROOT
ATOM      1  C4' PXY d   1      -0.597   2.349   2.725  0.00  0.00     0.077 C 
ATOM      2  C1' PXY d   1       0.731  -1.597  -1.285  0.00  0.00     0.077 C 
ATOM      3  C1  PXY d   1       0.371  -0.561  -0.239  0.00  0.00    -0.082 A 
ATOM      4  C2  PXY d   1       1.330   0.134   0.351  0.00  0.00     0.003 A 
ATOM      5  C3  PXY d   1       1.024   1.052   1.322  0.00  0.00     0.003 A 
ATOM      6  C4  PXY d   1      -0.281   1.299   1.656  0.00  0.00    -0.082 A 
ATOM      7  C5  PXY d   1      -1.266   0.602   1.051  0.00  0.00     0.003 A 
ATOM      8  C6  PXY d   1      -0.932  -0.355   0.097  0.00  0.00     0.003 A 
ENDROOT
TORSDOF 0
ENDMDL
