MODEL 1
REMARK minimizedAffinity -3.71214843
REMARK minimizedRMSD -1
REMARK  0 active torsions:
REMARK  status: ('A' for Active; 'I' for Inactive)
ROOT
ATOM      1  C4' PXY d   1      -3.728   0.377   0.742  0.00  0.00     0.077 C 
ATOM      2  C1' PXY d   1       1.984  -0.443   0.407  0.00  0.00     0.077 C 
ATOM      3  C1  PXY d   1       0.487  -0.224   0.507  0.00  0.00    -0.082 A 
ATOM      4  C2  PXY d   1      -0.328  -0.909  -0.277  0.00  0.00     0.003 A 
ATOM      5  C3  PXY d   1      -1.682  -0.700  -0.222  0.00  0.00     0.003 A 
ATOM      6  C4  PXY d   1      -2.211   0.181   0.682  0.00  0.00    -0.082 A 
ATOM      7  C5  PXY d   1      -1.386   0.877   1.493  0.00  0.00     0.003 A 
ATOM      8  C6  PXY d   1      -0.012   0.680   1.393  0.00  0.00     0.003 A 
ENDROOT
TORSDOF 0
ENDMDL
