MODEL 1
REMARK minimizedAffinity -3.13149428
REMARK minimizedRMSD -1
REMARK  0 active torsions:
REMARK  status: ('A' for Active; 'I' for Inactive)
ROOT
ATOM      1  C4' PXY d   1       0.614  -0.411  -2.667  0.00  0.00     0.077 C 
ATOM      2  C1' PXY d   1      -1.031   0.267   2.833  0.00  0.00     0.077 C 
ATOM      3  C1  PXY d   1      -0.588   0.093   1.393  0.00  0.00    -0.082 A 
ATOM      4  C2  PXY d   1      -1.491   0.094   0.426  0.00  0.00     0.003 A 
ATOM      5  C3  PXY d   1      -1.110  -0.094  -0.878  0.00  0.00     0.003 A 
ATOM      6  C4  PXY d   1       0.213  -0.230  -1.201  0.00  0.00    -0.082 A 
ATOM      7  C5  PXY d   1       1.142  -0.221  -0.221  0.00  0.00     0.003 A 
ATOM      8  C6  PXY d   1       0.731  -0.071   1.101  0.00  0.00     0.003 A 
ENDROOT
TORSDOF 0
ENDMDL
