MODEL 1
REMARK minimizedAffinity 2.64409566
REMARK minimizedRMSD -1
REMARK  0 active torsions:
REMARK  status: ('A' for Active; 'I' for Inactive)
ROOT
ATOM      1  C4' PXY d   1       0.199   1.201  -2.162  0.00  0.00     0.077 C 
ATOM      2  C1' PXY d   1      -2.175   0.046   2.980  0.00  0.00     0.077 C 
ATOM      3  C1  PXY d   1      -1.556   0.361   1.633  0.00  0.00    -0.082 A 
ATOM      4  C2  PXY d   1      -1.397  -0.606   0.743  0.00  0.00     0.003 A 
ATOM      5  C3  PXY d   1      -0.810  -0.344  -0.468  0.00  0.00     0.003 A 
ATOM      6  C4  PXY d   1      -0.430   0.930  -0.793  0.00  0.00    -0.082 A 
ATOM      7  C5  PXY d   1      -0.598   1.924   0.105  0.00  0.00     0.003 A 
ATOM      8  C6  PXY d   1      -1.158   1.630   1.345  0.00  0.00     0.003 A 
ENDROOT
TORSDOF 0
ENDMDL
