MODEL 1
REMARK minimizedAffinity -5.31377316
REMARK minimizedRMSD -1
REMARK  0 active torsions:
REMARK  status: ('A' for Active; 'I' for Inactive)
ROOT
ATOM      1  C4' PXY d   1       1.893   0.316  -2.438  0.00  0.00     0.077 C 
ATOM      2  C1' PXY d   1      -1.795   0.544   2.007  0.00  0.00     0.077 C 
ATOM      3  C1  PXY d   1      -0.818   0.483   0.850  0.00  0.00    -0.082 A 
ATOM      4  C2  PXY d   1      -1.166   0.977  -0.327  0.00  0.00     0.003 A 
ATOM      5  C3  PXY d   1      -0.307   0.902  -1.393  0.00  0.00     0.003 A 
ATOM      6  C4  PXY d   1       0.942   0.364  -1.239  0.00  0.00    -0.082 A 
ATOM      7  C5  PXY d   1       1.310  -0.132  -0.039  0.00  0.00     0.003 A 
ATOM      8  C6  PXY d   1       0.408  -0.084   1.020  0.00  0.00     0.003 A 
ENDROOT
TORSDOF 0
ENDMDL
