MODEL 1
REMARK minimizedAffinity 13.2796679
REMARK minimizedRMSD -1
REMARK  1 active torsions:
REMARK  status: ('A' for Active; 'I' for Inactive)
REMARK    1  A    between atoms: C1_2  and  C2_3 
ROOT
ATOM      1  C2  UNL d   1       0.019   3.385   0.338  0.00  0.00    -0.076 A 
ATOM      2  C3  UNL d   1       0.429   4.245  -0.696  0.00  0.00     0.004 A 
ATOM      3  C4  UNL d   1      -0.076   5.540  -0.794  0.00  0.00    -0.003 A 
ATOM      4  C5  UNL d   1      -1.000   5.997   0.139  0.00  0.00     0.000 A 
ATOM      5  C6  UNL d   1      -1.405   5.163   1.181  0.00  0.00     0.000 A 
ATOM      6  C7  UNL d   1      -0.893   3.860   1.305  0.00  0.00    -0.073 A 
ATOM      7  C8  UNL d   1      -1.369   3.002   2.444  0.00  0.00     0.078 C 
ENDROOT
BRANCH   1   8
ATOM      8  C1  UNL d   1       0.580   1.982   0.378  0.00  0.00     0.053 C 
ATOM      9  C   UNL d   1      -0.264   0.993  -0.411  0.00  0.00     0.018 C 
ENDBRANCH   1   8
TORSDOF 1
ENDMDL
