MODEL 1
REMARK minimizedAffinity 15.0778885
REMARK minimizedRMSD -1
REMARK  1 active torsions:
REMARK  status: ('A' for Active; 'I' for Inactive)
REMARK    1  A    between atoms: C1_2  and  C2_3 
ROOT
ATOM      1  C2  UNL d   1      -0.472   1.457  -0.081  0.00  0.00    -0.076 A 
ATOM      2  C3  UNL d   1       0.644   0.887  -0.718  0.00  0.00     0.004 A 
ATOM      3  C4  UNL d   1       0.495  -0.159  -1.627  0.00  0.00    -0.003 A 
ATOM      4  C5  UNL d   1      -0.773  -0.651  -1.915  0.00  0.00     0.000 A 
ATOM      5  C6  UNL d   1      -1.893  -0.086  -1.306  0.00  0.00     0.000 A 
ATOM      6  C7  UNL d   1      -1.762   0.979  -0.399  0.00  0.00    -0.073 A 
ATOM      7  C8  UNL d   1      -3.003   1.547   0.233  0.00  0.00     0.078 C 
ENDROOT
BRANCH   1   8
ATOM      8  C1  UNL d   1      -0.247   2.571   0.917  0.00  0.00     0.053 C 
ATOM      9  C   UNL d   1       0.485   3.758   0.309  0.00  0.00     0.018 C 
ENDBRANCH   1   8
TORSDOF 1
ENDMDL
