MODEL 1
REMARK minimizedAffinity 11.5224018
REMARK minimizedRMSD -1
REMARK  1 active torsions:
REMARK  status: ('A' for Active; 'I' for Inactive)
REMARK    1  A    between atoms: C1_2  and  C2_3 
ROOT
ATOM      1  C2  UNL d   1      -1.026   2.553   2.521  0.00  0.00    -0.076 A 
ATOM      2  C3  UNL d   1      -1.296   3.390   1.425  0.00  0.00     0.004 A 
ATOM      3  C4  UNL d   1      -0.262   3.995   0.712  0.00  0.00    -0.003 A 
ATOM      4  C5  UNL d   1       1.059   3.772   1.083  0.00  0.00     0.000 A 
ATOM      5  C6  UNL d   1       1.346   2.930   2.158  0.00  0.00     0.000 A 
ATOM      6  C7  UNL d   1       0.316   2.300   2.877  0.00  0.00    -0.073 A 
ATOM      7  C8  UNL d   1       0.683   1.407   4.030  0.00  0.00     0.078 C 
ENDROOT
BRANCH   1   8
ATOM      8  C1  UNL d   1      -2.189   1.947   3.273  0.00  0.00     0.053 C 
ATOM      9  C   UNL d   1      -2.915   0.884   2.464  0.00  0.00     0.018 C 
ENDBRANCH   1   8
TORSDOF 1
ENDMDL
