MODEL 1
REMARK minimizedAffinity 7.2769599
REMARK minimizedRMSD -1
REMARK  1 active torsions:
REMARK  status: ('A' for Active; 'I' for Inactive)
REMARK    1  A    between atoms: C1_2  and  C2_3 
ROOT
ATOM      1  C2  UNL d   1       4.758  -3.319  -1.664  0.00  0.00    -0.076 A 
ATOM      2  C3  UNL d   1       4.135  -2.079  -1.889  0.00  0.00     0.004 A 
ATOM      3  C4  UNL d   1       4.022  -1.137  -0.868  0.00  0.00    -0.003 A 
ATOM      4  C5  UNL d   1       4.531  -1.419   0.394  0.00  0.00     0.000 A 
ATOM      5  C6  UNL d   1       5.169  -2.637   0.631  0.00  0.00     0.000 A 
ATOM      6  C7  UNL d   1       5.305  -3.591  -0.392  0.00  0.00    -0.073 A 
ATOM      7  C8  UNL d   1       5.996  -4.890  -0.080  0.00  0.00     0.078 C 
ENDROOT
BRANCH   1   8
ATOM      8  C1  UNL d   1       4.827  -4.312  -2.802  0.00  0.00     0.053 C 
ATOM      9  C   UNL d   1       3.454  -4.815  -3.221  0.00  0.00     0.018 C 
ENDBRANCH   1   8
TORSDOF 1
ENDMDL
