MODEL 1
REMARK minimizedAffinity -3.1643405
REMARK minimizedRMSD -1
REMARK  0 active torsions:
REMARK  status: ('A' for Active; 'I' for Inactive)
ROOT
ATOM      1  C   UNL d   1      -2.568  -1.113  -0.502  0.00  0.00     0.124 A 
ATOM      2  C1  UNL d   1      -2.164  -0.749   0.775  0.00  0.00     0.062 A 
ATOM      3  C2  UNL d   1      -0.967  -0.064   0.963  0.00  0.00     0.162 A 
ATOM      4  C3  UNL d   1      -0.165   0.262  -0.130  0.00  0.00    -0.034 A 
ATOM      5  C4  UNL d   1      -0.576  -0.108  -1.412  0.00  0.00     0.162 A 
ATOM      6  C5  UNL d   1      -1.773  -0.793  -1.594  0.00  0.00     0.062 A 
ATOM      7  F   UNL d   1      -2.161  -1.144  -2.829  0.00  0.00    -0.097 F 
ATOM      8  F1  UNL d   1       0.172   0.189  -2.485  0.00  0.00    -0.096 F 
ATOM      9  I   UNL d   1       1.626   1.286   0.146  0.00  0.00    -0.060 I 
ATOM     10  F2  UNL d   1      -0.603   0.276   2.208  0.00  0.00    -0.096 F 
ATOM     11  F3  UNL d   1      -2.930  -1.058   1.832  0.00  0.00    -0.097 F 
ATOM     12  F4  UNL d   1      -3.719  -1.773  -0.679  0.00  0.00    -0.092 F 
ENDROOT
TORSDOF 0
ENDMDL
