MODEL 1
REMARK minimizedAffinity -3.22951698
REMARK minimizedRMSD -1
REMARK  0 active torsions:
REMARK  status: ('A' for Active; 'I' for Inactive)
ROOT
ATOM      1  C   UNL d   1      -2.351  -0.927  -0.597  0.00  0.00     0.124 A 
ATOM      2  C1  UNL d   1      -1.507  -0.509  -1.616  0.00  0.00     0.062 A 
ATOM      3  C2  UNL d   1      -0.346   0.199  -1.318  0.00  0.00     0.162 A 
ATOM      4  C3  UNL d   1      -0.023   0.494   0.006  0.00  0.00    -0.034 A 
ATOM      5  C4  UNL d   1      -0.878   0.072   1.026  0.00  0.00     0.162 A 
ATOM      6  C5  UNL d   1      -2.036  -0.636   0.723  0.00  0.00     0.062 A 
ATOM      7  F   UNL d   1      -2.851  -1.039   1.709  0.00  0.00    -0.097 F 
ATOM      8  F1  UNL d   1      -0.597   0.339   2.310  0.00  0.00    -0.096 F 
ATOM      9  I   UNL d   1       1.711   1.554   0.457  0.00  0.00    -0.060 I 
ATOM     10  F2  UNL d   1       0.451   0.590  -2.323  0.00  0.00    -0.096 F 
ATOM     11  F3  UNL d   1      -1.809  -0.789  -2.892  0.00  0.00    -0.097 F 
ATOM     12  F4  UNL d   1      -3.467  -1.608  -0.887  0.00  0.00    -0.092 F 
ENDROOT
TORSDOF 0
ENDMDL
