MODEL 1
REMARK minimizedAffinity -1.40183532
REMARK minimizedRMSD -1
REMARK  0 active torsions:
REMARK  status: ('A' for Active; 'I' for Inactive)
ROOT
ATOM      1  C   UNL d   1      -1.606  -0.625  -1.608  0.00  0.00     0.124 A 
ATOM      2  C1  UNL d   1      -0.281  -0.314  -1.880  0.00  0.00     0.062 A 
ATOM      3  C2  UNL d   1       0.557   0.130  -0.861  0.00  0.00     0.162 A 
ATOM      4  C3  UNL d   1       0.073   0.265   0.440  0.00  0.00    -0.034 A 
ATOM      5  C4  UNL d   1      -1.261  -0.049   0.705  0.00  0.00     0.162 A 
ATOM      6  C5  UNL d   1      -2.095  -0.493  -0.316  0.00  0.00     0.062 A 
ATOM      7  F   UNL d   1      -3.375  -0.793  -0.052  0.00  0.00    -0.097 F 
ATOM      8  F1  UNL d   1      -1.760   0.069   1.945  0.00  0.00    -0.096 F 
ATOM      9  I   UNL d   1       1.322   0.928   1.966  0.00  0.00    -0.060 I 
ATOM     10  F2  UNL d   1       1.833   0.423  -1.152  0.00  0.00    -0.096 F 
ATOM     11  F3  UNL d   1       0.194  -0.441  -3.127  0.00  0.00    -0.097 F 
ATOM     12  F4  UNL d   1      -2.410  -1.051  -2.591  0.00  0.00    -0.092 F 
ENDROOT
TORSDOF 0
ENDMDL
