MODEL 1
REMARK minimizedAffinity -0.355259299
REMARK minimizedRMSD -1
REMARK  0 active torsions:
REMARK  status: ('A' for Active; 'I' for Inactive)
ROOT
ATOM      1  C   UNL d   1       1.932   1.009   0.402  0.00  0.00     0.124 A 
ATOM      2  C1  UNL d   1       1.069   1.876  -0.253  0.00  0.00     0.062 A 
ATOM      3  C2  UNL d   1      -0.218   1.464  -0.586  0.00  0.00     0.162 A 
ATOM      4  C3  UNL d   1      -0.650   0.177  -0.265  0.00  0.00    -0.034 A 
ATOM      5  C4  UNL d   1       0.225  -0.690   0.392  0.00  0.00     0.162 A 
ATOM      6  C5  UNL d   1       1.510  -0.273   0.724  0.00  0.00     0.062 A 
ATOM      7  F   UNL d   1       2.343  -1.112   1.356  0.00  0.00    -0.097 F 
ATOM      8  F1  UNL d   1      -0.158  -1.935   0.716  0.00  0.00    -0.096 F 
ATOM      9  I   UNL d   1      -2.573  -0.444  -0.762  0.00  0.00    -0.060 I 
ATOM     10  F2  UNL d   1      -1.031   2.323  -1.219  0.00  0.00    -0.096 F 
ATOM     11  F3  UNL d   1       1.475   3.115  -0.565  0.00  0.00    -0.097 F 
ATOM     12  F4  UNL d   1       3.170   1.408   0.721  0.00  0.00    -0.092 F 
ENDROOT
TORSDOF 0
ENDMDL
