MODEL 1
REMARK minimizedAffinity -3.90169621
REMARK minimizedRMSD -1
REMARK  0 active torsions:
REMARK  status: ('A' for Active; 'I' for Inactive)
ROOT
ATOM      1  C   UNL d   1      -2.801  -0.730  -1.012  0.00  0.00     0.124 A 
ATOM      2  C1  UNL d   1      -2.111  -0.024  -1.987  0.00  0.00     0.062 A 
ATOM      3  C2  UNL d   1      -0.827   0.447  -1.733  0.00  0.00     0.162 A 
ATOM      4  C3  UNL d   1      -0.223   0.213  -0.498  0.00  0.00    -0.034 A 
ATOM      5  C4  UNL d   1      -0.924  -0.497   0.479  0.00  0.00     0.162 A 
ATOM      6  C5  UNL d   1      -2.207  -0.966   0.220  0.00  0.00     0.062 A 
ATOM      7  F   UNL d   1      -2.873  -1.648   1.164  0.00  0.00    -0.097 F 
ATOM      8  F1  UNL d   1      -0.373  -0.739   1.678  0.00  0.00    -0.096 F 
ATOM      9  I   UNL d   1       1.698   0.917  -0.114  0.00  0.00    -0.060 I 
ATOM     10  F2  UNL d   1      -0.183   1.126  -2.694  0.00  0.00    -0.096 F 
ATOM     11  F3  UNL d   1      -2.684   0.205  -3.178  0.00  0.00    -0.097 F 
ATOM     12  F4  UNL d   1      -4.038  -1.182  -1.259  0.00  0.00    -0.092 F 
ENDROOT
TORSDOF 0
ENDMDL
