MODEL 1
REMARK minimizedAffinity 10.2497787
REMARK minimizedRMSD -1
REMARK  0 active torsions:
REMARK  status: ('A' for Active; 'I' for Inactive)
ROOT
ATOM      1  C   UNL d   1      -2.287  -1.663  -1.182  0.00  0.00     0.124 A 
ATOM      2  C1  UNL d   1      -1.916  -1.249   0.090  0.00  0.00     0.062 A 
ATOM      3  C2  UNL d   1      -0.902  -0.310   0.253  0.00  0.00     0.162 A 
ATOM      4  C3  UNL d   1      -0.252   0.224  -0.860  0.00  0.00    -0.034 A 
ATOM      5  C4  UNL d   1      -0.630  -0.198  -2.136  0.00  0.00     0.162 A 
ATOM      6  C5  UNL d   1      -1.644  -1.137  -2.293  0.00  0.00     0.062 A 
ATOM      7  F   UNL d   1      -2.001  -1.536  -3.523  0.00  0.00    -0.097 F 
ATOM      8  F1  UNL d   1      -0.026   0.295  -3.228  0.00  0.00    -0.096 F 
ATOM      9  I   UNL d   1       1.265   1.629  -0.622  0.00  0.00    -0.060 I 
ATOM     10  F2  UNL d   1      -0.564   0.072   1.493  0.00  0.00    -0.096 F 
ATOM     11  F3  UNL d   1      -2.535  -1.757   1.166  0.00  0.00    -0.097 F 
ATOM     12  F4  UNL d   1      -3.262  -2.568  -1.335  0.00  0.00    -0.092 F 
ENDROOT
TORSDOF 0
ENDMDL
