MODEL 1
REMARK minimizedAffinity -1.43383241
REMARK minimizedRMSD -1
REMARK  0 active torsions:
REMARK  status: ('A' for Active; 'I' for Inactive)
ROOT
ATOM      1  C   UNL d   1       2.257   1.208   0.366  0.00  0.00     0.124 A 
ATOM      2  C1  UNL d   1       1.846  -0.099   0.589  0.00  0.00     0.062 A 
ATOM      3  C2  UNL d   1       0.520  -0.462   0.372  0.00  0.00     0.162 A 
ATOM      4  C3  UNL d   1      -0.405   0.482  -0.072  0.00  0.00    -0.034 A 
ATOM      5  C4  UNL d   1       0.015   1.795  -0.293  0.00  0.00     0.162 A 
ATOM      6  C5  UNL d   1       1.341   2.153  -0.075  0.00  0.00     0.062 A 
ATOM      7  F   UNL d   1       1.737   3.416  -0.291  0.00  0.00    -0.097 F 
ATOM      8  F1  UNL d   1      -0.848   2.729  -0.720  0.00  0.00    -0.096 F 
ATOM      9  I   UNL d   1      -2.389  -0.057  -0.397  0.00  0.00    -0.060 I 
ATOM     10  F2  UNL d   1       0.151  -1.732   0.596  0.00  0.00    -0.096 F 
ATOM     11  F3  UNL d   1       2.728  -1.014   1.016  0.00  0.00    -0.097 F 
ATOM     12  F4  UNL d   1       3.533   1.555   0.576  0.00  0.00    -0.092 F 
ENDROOT
TORSDOF 0
ENDMDL
