MODEL 1
REMARK minimizedAffinity 5.29391575
REMARK minimizedRMSD -1
REMARK  0 active torsions:
REMARK  status: ('A' for Active; 'I' for Inactive)
ROOT
ATOM      1  C   UNL d   1       3.545   3.191   0.463  0.00  0.00     0.124 A 
ATOM      2  C1  UNL d   1       3.273   2.165  -0.431  0.00  0.00     0.062 A 
ATOM      3  C2  UNL d   1       2.504   1.075  -0.034  0.00  0.00     0.162 A 
ATOM      4  C3  UNL d   1       1.999   1.006   1.265  0.00  0.00    -0.034 A 
ATOM      5  C4  UNL d   1       2.278   2.041   2.159  0.00  0.00     0.162 A 
ATOM      6  C5  UNL d   1       3.047   3.128   1.757  0.00  0.00     0.062 A 
ATOM      7  F   UNL d   1       3.308   4.119   2.623  0.00  0.00    -0.097 F 
ATOM      8  F1  UNL d   1       1.808   2.007   3.415  0.00  0.00    -0.096 F 
ATOM      9  I   UNL d   1       0.849  -0.622   1.863  0.00  0.00    -0.060 I 
ATOM     10  F2  UNL d   1       2.257   0.098  -0.919  0.00  0.00    -0.096 F 
ATOM     11  F3  UNL d   1       3.753   2.223  -1.682  0.00  0.00    -0.097 F 
ATOM     12  F4  UNL d   1       4.286   4.238   0.078  0.00  0.00    -0.092 F 
ENDROOT
TORSDOF 0
ENDMDL
