MODEL 1
REMARK minimizedAffinity 0.3943488
REMARK minimizedRMSD -1
REMARK  0 active torsions:
REMARK  status: ('A' for Active; 'I' for Inactive)
ROOT
ATOM      1  C   UNL d   1       2.716   2.651   0.846  0.00  0.00     0.124 A 
ATOM      2  C1  UNL d   1       2.808   1.658  -0.120  0.00  0.00     0.062 A 
ATOM      3  C2  UNL d   1       1.973   0.545  -0.061  0.00  0.00     0.162 A 
ATOM      4  C3  UNL d   1       1.039   0.419   0.968  0.00  0.00    -0.034 A 
ATOM      5  C4  UNL d   1       0.954   1.422   1.936  0.00  0.00     0.162 A 
ATOM      6  C5  UNL d   1       1.790   2.532   1.872  0.00  0.00     0.062 A 
ATOM      7  F   UNL d   1       1.700   3.490   2.806  0.00  0.00    -0.097 F 
ATOM      8  F1  UNL d   1       0.067   1.333   2.938  0.00  0.00    -0.096 F 
ATOM      9  I   UNL d   1      -0.210  -1.243   1.060  0.00  0.00    -0.060 I 
ATOM     10  F2  UNL d   1       2.084  -0.399  -1.007  0.00  0.00    -0.096 F 
ATOM     11  F3  UNL d   1       3.702   1.770  -1.112  0.00  0.00    -0.097 F 
ATOM     12  F4  UNL d   1       3.521   3.720   0.787  0.00  0.00    -0.092 F 
ENDROOT
TORSDOF 0
ENDMDL
