MODEL 1
REMARK minimizedAffinity 0.97627902
REMARK minimizedRMSD -1
REMARK  0 active torsions:
REMARK  status: ('A' for Active; 'I' for Inactive)
ROOT
ATOM      1  C   UNL d   1       0.183  -1.198   0.802  0.00  0.00     0.124 A 
ATOM      2  C1  UNL d   1      -0.617  -0.065   0.767  0.00  0.00     0.062 A 
ATOM      3  C2  UNL d   1      -0.049   1.186   0.541  0.00  0.00     0.162 A 
ATOM      4  C3  UNL d   1       1.327   1.310   0.348  0.00  0.00    -0.034 A 
ATOM      5  C4  UNL d   1       2.125   0.165   0.385  0.00  0.00     0.162 A 
ATOM      6  C5  UNL d   1       1.553  -1.083   0.611  0.00  0.00     0.062 A 
ATOM      7  F   UNL d   1       2.327  -2.177   0.644  0.00  0.00    -0.097 F 
ATOM      8  F1  UNL d   1       3.451   0.248   0.203  0.00  0.00    -0.096 F 
ATOM      9  I   UNL d   1       2.180   3.178   0.010  0.00  0.00    -0.060 I 
ATOM     10  F2  UNL d   1      -0.846   2.264   0.512  0.00  0.00    -0.096 F 
ATOM     11  F3  UNL d   1      -1.941  -0.174   0.951  0.00  0.00    -0.097 F 
ATOM     12  F4  UNL d   1      -0.366  -2.400   1.020  0.00  0.00    -0.092 F 
ENDROOT
TORSDOF 0
ENDMDL
