MODEL 1
REMARK minimizedAffinity -4.41709375
REMARK minimizedRMSD -1
REMARK  0 active torsions:
REMARK  status: ('A' for Active; 'I' for Inactive)
ROOT
ATOM      1  C   UNL d   1      -2.284  -0.739  -1.253  0.00  0.00     0.124 A 
ATOM      2  C1  UNL d   1      -2.068  -0.967   0.099  0.00  0.00     0.062 A 
ATOM      3  C2  UNL d   1      -0.888  -0.540   0.702  0.00  0.00     0.162 A 
ATOM      4  C3  UNL d   1       0.085   0.121  -0.047  0.00  0.00    -0.034 A 
ATOM      5  C4  UNL d   1      -0.138   0.345  -1.407  0.00  0.00     0.162 A 
ATOM      6  C5  UNL d   1      -1.319  -0.083  -2.005  0.00  0.00     0.062 A 
ATOM      7  F   UNL d   1      -1.525   0.138  -3.311  0.00  0.00    -0.097 F 
ATOM      8  F1  UNL d   1       0.777   0.977  -2.157  0.00  0.00    -0.096 F 
ATOM      9  I   UNL d   1       1.851   0.761   0.850  0.00  0.00    -0.060 I 
ATOM     10  F2  UNL d   1      -0.707  -0.773   2.010  0.00  0.00    -0.096 F 
ATOM     11  F3  UNL d   1      -2.999  -1.601   0.827  0.00  0.00    -0.097 F 
ATOM     12  F4  UNL d   1      -3.419  -1.152  -1.830  0.00  0.00    -0.092 F 
ENDROOT
TORSDOF 0
ENDMDL
