MODEL 1
REMARK minimizedAffinity 3.31788039
REMARK minimizedRMSD -1
REMARK  0 active torsions:
REMARK  status: ('A' for Active; 'I' for Inactive)
ROOT
ATOM      1  C   UNL d   1      -1.215  -1.242   1.888  0.00  0.00     0.124 A 
ATOM      2  C1  UNL d   1      -1.534  -0.177   1.057  0.00  0.00     0.062 A 
ATOM      3  C2  UNL d   1      -0.532   0.495   0.364  0.00  0.00     0.162 A 
ATOM      4  C3  UNL d   1       0.800   0.104   0.497  0.00  0.00    -0.034 A 
ATOM      5  C4  UNL d   1       1.114  -0.968   1.335  0.00  0.00     0.162 A 
ATOM      6  C5  UNL d   1       0.108  -1.637   2.026  0.00  0.00     0.062 A 
ATOM      7  F   UNL d   1       0.419  -2.665   2.828  0.00  0.00    -0.097 F 
ATOM      8  F1  UNL d   1       2.384  -1.370   1.487  0.00  0.00    -0.096 F 
ATOM      9  I   UNL d   1       2.302   1.106  -0.537  0.00  0.00    -0.060 I 
ATOM     10  F2  UNL d   1      -0.870   1.520  -0.432  0.00  0.00    -0.096 F 
ATOM     11  F3  UNL d   1      -2.812   0.206   0.922  0.00  0.00    -0.097 F 
ATOM     12  F4  UNL d   1      -2.181  -1.887   2.554  0.00  0.00    -0.092 F 
ENDROOT
TORSDOF 0
ENDMDL
