MODEL 1
REMARK minimizedAffinity -4.58806801
REMARK minimizedRMSD -1
REMARK  0 active torsions:
REMARK  status: ('A' for Active; 'I' for Inactive)
ROOT
ATOM      1  C   UNL d   1       1.647  -0.357   0.962  0.00  0.00     0.124 A 
ATOM      2  C1  UNL d   1       1.160   0.422  -0.079  0.00  0.00     0.062 A 
ATOM      3  C2  UNL d   1      -0.183   0.352  -0.437  0.00  0.00     0.162 A 
ATOM      4  C3  UNL d   1      -1.050  -0.500   0.247  0.00  0.00    -0.034 A 
ATOM      5  C4  UNL d   1      -0.554  -1.280   1.292  0.00  0.00     0.162 A 
ATOM      6  C5  UNL d   1       0.789  -1.207   1.646  0.00  0.00     0.062 A 
ATOM      7  F   UNL d   1       1.257  -1.960   2.653  0.00  0.00    -0.097 F 
ATOM      8  F1  UNL d   1      -1.360  -2.110   1.971  0.00  0.00    -0.096 F 
ATOM      9  I   UNL d   1      -3.059  -0.607  -0.286  0.00  0.00    -0.060 I 
ATOM     10  F2  UNL d   1      -0.625   1.116  -1.447  0.00  0.00    -0.096 F 
ATOM     11  F3  UNL d   1       1.987   1.243  -0.742  0.00  0.00    -0.097 F 
ATOM     12  F4  UNL d   1       2.940  -0.288   1.304  0.00  0.00    -0.092 F 
ENDROOT
TORSDOF 0
ENDMDL
