MODEL 1
REMARK minimizedAffinity 0.449822098
REMARK minimizedRMSD -1
REMARK  0 active torsions:
REMARK  status: ('A' for Active; 'I' for Inactive)
ROOT
ATOM      1  C   UNL d   1      -1.792  -0.441  -1.506  0.00  0.00     0.124 A 
ATOM      2  C1  UNL d   1      -0.468  -0.371  -1.915  0.00  0.00     0.062 A 
ATOM      3  C2  UNL d   1       0.496   0.181  -1.075  0.00  0.00     0.162 A 
ATOM      4  C3  UNL d   1       0.138   0.666   0.183  0.00  0.00    -0.034 A 
ATOM      5  C4  UNL d   1      -1.196   0.593   0.587  0.00  0.00     0.162 A 
ATOM      6  C5  UNL d   1      -2.155   0.041  -0.256  0.00  0.00     0.062 A 
ATOM      7  F   UNL d   1      -3.434  -0.026   0.141  0.00  0.00    -0.097 F 
ATOM      8  F1  UNL d   1      -1.574   1.050   1.790  0.00  0.00    -0.096 F 
ATOM      9  I   UNL d   1       1.576   1.491   1.441  0.00  0.00    -0.060 I 
ATOM     10  F2  UNL d   1       1.768   0.235  -1.496  0.00  0.00    -0.096 F 
ATOM     11  F3  UNL d   1      -0.115  -0.835  -3.122  0.00  0.00    -0.097 F 
ATOM     12  F4  UNL d   1      -2.717  -0.971  -2.316  0.00  0.00    -0.092 F 
ENDROOT
TORSDOF 0
ENDMDL
