MODEL 1
REMARK minimizedAffinity 1.01992476
REMARK minimizedRMSD -1
REMARK  0 active torsions:
REMARK  status: ('A' for Active; 'I' for Inactive)
ROOT
ATOM      1  C   UNL d   1      -1.601  -1.417  -0.013  0.00  0.00     0.124 A 
ATOM      2  C1  UNL d   1      -0.535  -1.442   0.876  0.00  0.00     0.062 A 
ATOM      3  C2  UNL d   1       0.443  -0.453   0.824  0.00  0.00     0.162 A 
ATOM      4  C3  UNL d   1       0.360   0.570  -0.120  0.00  0.00    -0.034 A 
ATOM      5  C4  UNL d   1      -0.715   0.588  -1.012  0.00  0.00     0.162 A 
ATOM      6  C5  UNL d   1      -1.690  -0.402  -0.956  0.00  0.00     0.062 A 
ATOM      7  F   UNL d   1      -2.719  -0.377  -1.815  0.00  0.00    -0.097 F 
ATOM      8  F1  UNL d   1      -0.825   1.558  -1.932  0.00  0.00    -0.096 F 
ATOM      9  I   UNL d   1       1.820   2.051  -0.201  0.00  0.00    -0.060 I 
ATOM     10  F2  UNL d   1       1.462  -0.502   1.695  0.00  0.00    -0.096 F 
ATOM     11  F3  UNL d   1      -0.447  -2.422   1.787  0.00  0.00    -0.097 F 
ATOM     12  F4  UNL d   1      -2.540  -2.370   0.038  0.00  0.00    -0.092 F 
ENDROOT
TORSDOF 0
ENDMDL
