MODEL 1
REMARK minimizedAffinity 0.952975869
REMARK minimizedRMSD -1
REMARK  0 active torsions:
REMARK  status: ('A' for Active; 'I' for Inactive)
ROOT
ATOM      1  C   UNL d   1       2.136   1.846   1.449  0.00  0.00     0.124 A 
ATOM      2  C1  UNL d   1       1.885   0.485   1.552  0.00  0.00     0.062 A 
ATOM      3  C2  UNL d   1       0.828  -0.087   0.850  0.00  0.00     0.162 A 
ATOM      4  C3  UNL d   1       0.014   0.703   0.037  0.00  0.00    -0.034 A 
ATOM      5  C4  UNL d   1       0.272   2.071  -0.060  0.00  0.00     0.162 A 
ATOM      6  C5  UNL d   1       1.330   2.638   0.644  0.00  0.00     0.062 A 
ATOM      7  F   UNL d   1       1.571   3.953   0.543  0.00  0.00    -0.097 F 
ATOM      8  F1  UNL d   1      -0.491   2.860  -0.832  0.00  0.00    -0.096 F 
ATOM      9  I   UNL d   1      -1.568  -0.148  -1.014  0.00  0.00    -0.060 I 
ATOM     10  F2  UNL d   1       0.608  -1.405   0.968  0.00  0.00    -0.096 F 
ATOM     11  F3  UNL d   1       2.662  -0.282   2.330  0.00  0.00    -0.097 F 
ATOM     12  F4  UNL d   1       3.153   2.394   2.126  0.00  0.00    -0.092 F 
ENDROOT
TORSDOF 0
ENDMDL
