MODEL 1
REMARK minimizedAffinity -2.79729915
REMARK minimizedRMSD -1
REMARK  0 active torsions:
REMARK  status: ('A' for Active; 'I' for Inactive)
ROOT
ATOM      1  C   UNL d   1      -2.971  -1.677  -0.506  0.00  0.00     0.124 A 
ATOM      2  C1  UNL d   1      -2.364  -0.857  -1.446  0.00  0.00     0.062 A 
ATOM      3  C2  UNL d   1      -1.125  -0.283  -1.179  0.00  0.00     0.162 A 
ATOM      4  C3  UNL d   1      -0.482  -0.529   0.035  0.00  0.00    -0.034 A 
ATOM      5  C4  UNL d   1      -1.100  -1.355   0.976  0.00  0.00     0.162 A 
ATOM      6  C5  UNL d   1      -2.339  -1.926   0.704  0.00  0.00     0.062 A 
ATOM      7  F   UNL d   1      -2.924  -2.718   1.614  0.00  0.00    -0.097 F 
ATOM      8  F1  UNL d   1      -0.510  -1.613   2.153  0.00  0.00    -0.096 F 
ATOM      9  I   UNL d   1       1.371   0.326   0.438  0.00  0.00    -0.060 I 
ATOM     10  F2  UNL d   1      -0.562   0.506  -2.106  0.00  0.00    -0.096 F 
ATOM     11  F3  UNL d   1      -2.974  -0.615  -2.616  0.00  0.00    -0.097 F 
ATOM     12  F4  UNL d   1      -4.165  -2.227  -0.765  0.00  0.00    -0.092 F 
ENDROOT
TORSDOF 0
ENDMDL
