MODEL 1
REMARK minimizedAffinity -5.62142467
REMARK minimizedRMSD -1
REMARK  0 active torsions:
REMARK  status: ('A' for Active; 'I' for Inactive)
ROOT
ATOM      1  C   UNL d   1      -1.061   2.954  -1.480  0.00  0.00     0.078 C 
ATOM      2  C1  UNL d   1      -0.716   2.101  -0.296  0.00  0.00    -0.077 A 
ATOM      3  C2  UNL d   1      -1.013   2.521   1.006  0.00  0.00    -0.001 A 
ATOM      4  C3  UNL d   1      -0.677   1.721   2.100  0.00  0.00     0.003 A 
ATOM      5  C4  UNL d   1      -0.042   0.496   1.902  0.00  0.00    -0.005 A 
ATOM      6  C5  UNL d   1       0.259   0.071   0.610  0.00  0.00     0.003 A 
ATOM      7  C6  UNL d   1      -0.076   0.869  -0.485  0.00  0.00    -0.001 A 
ENDROOT
TORSDOF 0
ENDMDL
