MODEL 1
REMARK minimizedAffinity -5.22761345
REMARK minimizedRMSD -1
REMARK  0 active torsions:
REMARK  status: ('A' for Active; 'I' for Inactive)
ROOT
ATOM      1  C   UNL d   1       0.369  -1.373  -0.599  0.00  0.00     0.078 C 
ATOM      2  C1  UNL d   1       0.002  -0.113   0.127  0.00  0.00    -0.077 A 
ATOM      3  C2  UNL d   1       0.302   0.051   1.485  0.00  0.00    -0.001 A 
ATOM      4  C3  UNL d   1      -0.054   1.225   2.150  0.00  0.00     0.003 A 
ATOM      5  C4  UNL d   1      -0.714   2.244   1.465  0.00  0.00    -0.005 A 
ATOM      6  C5  UNL d   1      -1.019   2.090   0.115  0.00  0.00     0.003 A 
ATOM      7  C6  UNL d   1      -0.663   0.916  -0.552  0.00  0.00    -0.001 A 
ENDROOT
TORSDOF 0
ENDMDL
