MODEL 1
REMARK minimizedAffinity -3.9699254
REMARK minimizedRMSD -1
REMARK  0 active torsions:
REMARK  status: ('A' for Active; 'I' for Inactive)
ROOT
ATOM      1  C   UNL d   1      -0.124  -0.657  -0.201  0.00  0.00     0.078 C 
ATOM      2  C1  UNL d   1      -0.362   0.685   0.423  0.00  0.00    -0.077 A 
ATOM      3  C2  UNL d   1      -0.567   1.823  -0.368  0.00  0.00    -0.001 A 
ATOM      4  C3  UNL d   1      -0.777   3.068   0.227  0.00  0.00     0.003 A 
ATOM      5  C4  UNL d   1      -0.783   3.188   1.615  0.00  0.00    -0.005 A 
ATOM      6  C5  UNL d   1      -0.577   2.062   2.411  0.00  0.00     0.003 A 
ATOM      7  C6  UNL d   1      -0.367   0.816   1.817  0.00  0.00    -0.001 A 
ENDROOT
TORSDOF 0
ENDMDL
