MODEL 1
REMARK minimizedAffinity -2.06861949
REMARK minimizedRMSD -1
REMARK  0 active torsions:
REMARK  status: ('A' for Active; 'I' for Inactive)
ROOT
ATOM      1  C   UNL d   1      -0.244   3.050  -1.864  0.00  0.00     0.078 C 
ATOM      2  C1  UNL d   1      -0.003   2.113  -0.719  0.00  0.00    -0.077 A 
ATOM      3  C2  UNL d   1       0.119   0.734  -0.929  0.00  0.00    -0.001 A 
ATOM      4  C3  UNL d   1       0.334  -0.128   0.148  0.00  0.00     0.003 A 
ATOM      5  C4  UNL d   1       0.426   0.380   1.443  0.00  0.00    -0.005 A 
ATOM      6  C5  UNL d   1       0.303   1.750   1.662  0.00  0.00     0.003 A 
ATOM      7  C6  UNL d   1       0.088   2.613   0.586  0.00  0.00    -0.001 A 
ENDROOT
TORSDOF 0
ENDMDL
