MODEL 1
REMARK minimizedAffinity -5.12654781
REMARK minimizedRMSD -1
REMARK  0 active torsions:
REMARK  status: ('A' for Active; 'I' for Inactive)
ROOT
ATOM      1  C   UNL d   1      -0.815   1.969   1.637  0.00  0.00     0.078 C 
ATOM      2  C1  UNL d   1      -0.003   1.130   0.696  0.00  0.00    -0.077 A 
ATOM      3  C2  UNL d   1       0.764   0.057   1.164  0.00  0.00    -0.001 A 
ATOM      4  C3  UNL d   1       1.523  -0.709   0.278  0.00  0.00     0.003 A 
ATOM      5  C4  UNL d   1       1.523  -0.408  -1.083  0.00  0.00    -0.005 A 
ATOM      6  C5  UNL d   1       0.765   0.660  -1.558  0.00  0.00     0.003 A 
ATOM      7  C6  UNL d   1       0.006   1.426  -0.673  0.00  0.00    -0.001 A 
ENDROOT
TORSDOF 0
ENDMDL
