MODEL 1
REMARK minimizedAffinity -3.48446059
REMARK minimizedRMSD -1
REMARK  0 active torsions:
REMARK  status: ('A' for Active; 'I' for Inactive)
ROOT
ATOM      1  C   UNL d   1      -0.414   3.113  -3.304  0.00  0.00     0.077 C 
ATOM      2  C1  UNL d   1      -0.286   2.300  -2.050  0.00  0.00    -0.074 A 
ATOM      3  C2  UNL d   1       0.003   2.909  -0.825  0.00  0.00    -0.005 A 
ATOM      4  C3  UNL d   1       0.109   2.141   0.334  0.00  0.00     0.006 A 
ATOM      5  C4  UNL d   1      -0.072   0.759   0.280  0.00  0.00    -0.005 A 
ATOM      6  C5  UNL d   1      -0.362   0.132  -0.936  0.00  0.00    -0.074 A 
ATOM      7  C6  UNL d   1      -0.569  -1.352  -1.010  0.00  0.00     0.077 C 
ATOM      8  C7  UNL d   1      -0.475   0.912  -2.095  0.00  0.00    -0.001 A 
ENDROOT
TORSDOF 0
ENDMDL
