MODEL 1
REMARK minimizedAffinity -5.42384338
REMARK minimizedRMSD -1
REMARK  0 active torsions:
REMARK  status: ('A' for Active; 'I' for Inactive)
ROOT
ATOM      1  C   UNL d   1       3.036   2.248   0.446  0.00  0.00     0.077 C 
ATOM      2  C1  UNL d   1       1.585   1.886   0.325  0.00  0.00    -0.074 A 
ATOM      3  C2  UNL d   1       0.589   2.860   0.453  0.00  0.00    -0.005 A 
ATOM      4  C3  UNL d   1      -0.755   2.511   0.328  0.00  0.00     0.006 A 
ATOM      5  C4  UNL d   1      -1.117   1.187   0.076  0.00  0.00    -0.005 A 
ATOM      6  C5  UNL d   1      -0.135   0.200  -0.055  0.00  0.00    -0.074 A 
ATOM      7  C6  UNL d   1      -0.506  -1.226  -0.337  0.00  0.00     0.077 C 
ATOM      8  C7  UNL d   1       1.214   0.560   0.064  0.00  0.00    -0.001 A 
ENDROOT
TORSDOF 0
ENDMDL
