MODEL 1
REMARK minimizedAffinity -4.08665466
REMARK minimizedRMSD -1
REMARK  0 active torsions:
REMARK  status: ('A' for Active; 'I' for Inactive)
ROOT
ATOM      1  C   UNL d   1       0.205   3.502  -0.866  0.00  0.00     0.077 C 
ATOM      2  C1  UNL d   1      -0.339   2.241  -0.264  0.00  0.00    -0.074 A 
ATOM      3  C2  UNL d   1      -1.339   2.283   0.713  0.00  0.00    -0.005 A 
ATOM      4  C3  UNL d   1      -1.842   1.102   1.257  0.00  0.00     0.006 A 
ATOM      5  C4  UNL d   1      -1.351  -0.133   0.830  0.00  0.00    -0.005 A 
ATOM      6  C5  UNL d   1      -0.352  -0.195  -0.146  0.00  0.00    -0.074 A 
ATOM      7  C6  UNL d   1       0.180  -1.514  -0.623  0.00  0.00     0.077 C 
ATOM      8  C7  UNL d   1       0.144   0.996  -0.693  0.00  0.00    -0.001 A 
ENDROOT
TORSDOF 0
ENDMDL
