MODEL 1
REMARK minimizedAffinity -2.28036237
REMARK minimizedRMSD -1
REMARK  0 active torsions:
REMARK  status: ('A' for Active; 'I' for Inactive)
ROOT
ATOM      1  C   UNL d   1      -1.593   0.050   1.130  0.00  0.00     0.077 C 
ATOM      2  C1  UNL d   1      -0.518   0.933   0.569  0.00  0.00    -0.074 A 
ATOM      3  C2  UNL d   1      -0.757   2.289   0.323  0.00  0.00    -0.005 A 
ATOM      4  C3  UNL d   1       0.255   3.099  -0.190  0.00  0.00     0.006 A 
ATOM      5  C4  UNL d   1       1.515   2.564  -0.462  0.00  0.00    -0.005 A 
ATOM      6  C5  UNL d   1       1.772   1.210  -0.222  0.00  0.00    -0.074 A 
ATOM      7  C6  UNL d   1       3.123   0.620  -0.500  0.00  0.00     0.077 C 
ATOM      8  C7  UNL d   1       0.752   0.403   0.300  0.00  0.00    -0.001 A 
ENDROOT
TORSDOF 0
ENDMDL
