MODEL 1
REMARK minimizedAffinity -3.94206905
REMARK minimizedRMSD -1
REMARK  0 active torsions:
REMARK  status: ('A' for Active; 'I' for Inactive)
ROOT
ATOM      1  C   UNL d   1      -1.407   2.065   0.057  0.00  0.00     0.077 C 
ATOM      2  C1  UNL d   1      -0.829   0.680   0.042  0.00  0.00    -0.074 A 
ATOM      3  C2  UNL d   1      -0.375   0.079   1.220  0.00  0.00    -0.005 A 
ATOM      4  C3  UNL d   1       0.151  -1.213   1.192  0.00  0.00     0.006 A 
ATOM      5  C4  UNL d   1       0.228  -1.915  -0.011  0.00  0.00    -0.005 A 
ATOM      6  C5  UNL d   1      -0.223  -1.330  -1.199  0.00  0.00    -0.074 A 
ATOM      7  C6  UNL d   1      -0.156  -2.074  -2.500  0.00  0.00     0.077 C 
ATOM      8  C7  UNL d   1      -0.756  -0.034  -1.162  0.00  0.00    -0.001 A 
ENDROOT
TORSDOF 0
ENDMDL
