MODEL 1
REMARK minimizedAffinity -2.04635644
REMARK minimizedRMSD -1
REMARK  0 active torsions:
REMARK  status: ('A' for Active; 'I' for Inactive)
ROOT
ATOM      1  C   UNL d   1      -2.437  -0.691   1.957  0.00  0.00     0.077 C 
ATOM      2  C1  UNL d   1      -1.475   0.258   1.307  0.00  0.00    -0.074 A 
ATOM      3  C2  UNL d   1      -1.915   1.474   0.774  0.00  0.00    -0.005 A 
ATOM      4  C3  UNL d   1      -1.008   2.352   0.180  0.00  0.00     0.006 A 
ATOM      5  C4  UNL d   1       0.347   2.023   0.114  0.00  0.00    -0.005 A 
ATOM      6  C5  UNL d   1       0.805   0.812   0.642  0.00  0.00    -0.074 A 
ATOM      7  C6  UNL d   1       2.259   0.447   0.588  0.00  0.00     0.077 C 
ATOM      8  C7  UNL d   1      -0.112  -0.062   1.243  0.00  0.00    -0.001 A 
ENDROOT
TORSDOF 0
ENDMDL
