MODEL 1
REMARK minimizedAffinity -3.63524365
REMARK minimizedRMSD -1
REMARK  0 active torsions:
REMARK  status: ('A' for Active; 'I' for Inactive)
ROOT
ATOM      1  C   UNL d   1       0.149   3.002  -0.698  0.00  0.00     0.077 C 
ATOM      2  C1  UNL d   1       0.650   1.656  -0.268  0.00  0.00    -0.074 A 
ATOM      3  C2  UNL d   1       2.018   1.415  -0.111  0.00  0.00    -0.005 A 
ATOM      4  C3  UNL d   1       2.469   0.160   0.299  0.00  0.00     0.006 A 
ATOM      5  C4  UNL d   1       1.557  -0.865   0.556  0.00  0.00    -0.005 A 
ATOM      6  C5  UNL d   1       0.185  -0.642   0.405  0.00  0.00    -0.074 A 
ATOM      7  C6  UNL d   1      -0.809  -1.730   0.687  0.00  0.00     0.077 C 
ATOM      8  C7  UNL d   1      -0.260   0.623  -0.000  0.00  0.00    -0.001 A 
ENDROOT
TORSDOF 0
ENDMDL
