MODEL 1
REMARK minimizedAffinity -5.29574585
REMARK minimizedRMSD -1
REMARK  0 active torsions:
REMARK  status: ('A' for Active; 'I' for Inactive)
ROOT
ATOM      1  C   UNL d   1      -0.648  -2.434  -0.372  0.00  0.00     0.077 C 
ATOM      2  C1  UNL d   1       0.202  -1.200  -0.301  0.00  0.00    -0.074 A 
ATOM      3  C2  UNL d   1       1.500  -1.250   0.218  0.00  0.00    -0.005 A 
ATOM      4  C3  UNL d   1       2.281  -0.096   0.270  0.00  0.00     0.006 A 
ATOM      5  C4  UNL d   1       1.774   1.117  -0.196  0.00  0.00    -0.005 A 
ATOM      6  C5  UNL d   1       0.479   1.187  -0.719  0.00  0.00    -0.074 A 
ATOM      7  C6  UNL d   1      -0.078   2.481  -1.233  0.00  0.00     0.077 C 
ATOM      8  C7  UNL d   1      -0.298   0.021  -0.774  0.00  0.00    -0.001 A 
ENDROOT
TORSDOF 0
ENDMDL
