MODEL 1
REMARK minimizedAffinity -3.43013501
REMARK minimizedRMSD -1
REMARK  0 active torsions:
REMARK  status: ('A' for Active; 'I' for Inactive)
ROOT
ATOM      1  C   UNL d   1      -0.454  -2.099   0.153  0.00  0.00     0.077 C 
ATOM      2  C1  UNL d   1       0.336  -0.824   0.185  0.00  0.00    -0.074 A 
ATOM      3  C2  UNL d   1       1.730  -0.845   0.298  0.00  0.00    -0.005 A 
ATOM      4  C3  UNL d   1       2.452   0.348   0.316  0.00  0.00     0.006 A 
ATOM      5  C4  UNL d   1       1.789   1.572   0.221  0.00  0.00    -0.005 A 
ATOM      6  C5  UNL d   1       0.396   1.613   0.106  0.00  0.00    -0.074 A 
ATOM      7  C6  UNL d   1      -0.332   2.920  -0.006  0.00  0.00     0.077 C 
ATOM      8  C7  UNL d   1      -0.322   0.409   0.082  0.00  0.00    -0.001 A 
ENDROOT
TORSDOF 0
ENDMDL
