MODEL 1
REMARK minimizedAffinity -3.95295739
REMARK minimizedRMSD -1
REMARK  0 active torsions:
REMARK  status: ('A' for Active; 'I' for Inactive)
ROOT
ATOM      1  C   UNL d   1      -0.901  -2.338  -0.373  0.00  0.00     0.077 C 
ATOM      2  C1  UNL d   1      -0.616  -0.901  -0.054  0.00  0.00    -0.074 A 
ATOM      3  C2  UNL d   1      -1.563  -0.109   0.604  0.00  0.00    -0.005 A 
ATOM      4  C3  UNL d   1      -1.281   1.223   0.903  0.00  0.00     0.006 A 
ATOM      5  C4  UNL d   1      -0.050   1.778   0.548  0.00  0.00    -0.005 A 
ATOM      6  C5  UNL d   1       0.909   1.001  -0.110  0.00  0.00    -0.074 A 
ATOM      7  C6  UNL d   1       2.241   1.579  -0.489  0.00  0.00     0.077 C 
ATOM      8  C7  UNL d   1       0.621  -0.339  -0.400  0.00  0.00    -0.001 A 
ENDROOT
TORSDOF 0
ENDMDL
