MODEL 1
REMARK minimizedAffinity -3.73925018
REMARK minimizedRMSD -1
REMARK  0 active torsions:
REMARK  status: ('A' for Active; 'I' for Inactive)
ROOT
ATOM      1  C   UNL d   1      -0.201  -1.848  -4.594  0.00  0.00     0.077 C 
ATOM      2  C1  UNL d   1      -0.449  -2.267  -3.175  0.00  0.00    -0.074 A 
ATOM      3  C2  UNL d   1      -1.106  -3.467  -2.885  0.00  0.00    -0.005 A 
ATOM      4  C3  UNL d   1      -1.322  -3.848  -1.560  0.00  0.00     0.006 A 
ATOM      5  C4  UNL d   1      -0.883  -3.034  -0.515  0.00  0.00    -0.005 A 
ATOM      6  C5  UNL d   1      -0.223  -1.832  -0.786  0.00  0.00    -0.074 A 
ATOM      7  C6  UNL d   1       0.263  -0.950   0.326  0.00  0.00     0.077 C 
ATOM      8  C7  UNL d   1      -0.004  -1.459  -2.119  0.00  0.00    -0.001 A 
ENDROOT
TORSDOF 0
ENDMDL
