MODEL 1
REMARK minimizedAffinity 1.11221385
REMARK minimizedRMSD -1
REMARK  0 active torsions:
REMARK  status: ('A' for Active; 'I' for Inactive)
ROOT
ATOM      1  C   UNL d   1      -0.307  -1.506  -0.094  0.00  0.00     0.077 C 
ATOM      2  C1  UNL d   1      -0.268  -0.049   0.259  0.00  0.00    -0.074 A 
ATOM      3  C2  UNL d   1      -1.445   0.703   0.338  0.00  0.00    -0.005 A 
ATOM      4  C3  UNL d   1      -1.394   2.055   0.678  0.00  0.00     0.006 A 
ATOM      5  C4  UNL d   1      -0.168   2.667   0.941  0.00  0.00    -0.005 A 
ATOM      6  C5  UNL d   1       1.019   1.931   0.868  0.00  0.00    -0.074 A 
ATOM      7  C6  UNL d   1       2.344   2.571   1.158  0.00  0.00     0.077 C 
ATOM      8  C7  UNL d   1       0.959   0.571   0.533  0.00  0.00    -0.001 A 
ENDROOT
TORSDOF 0
ENDMDL
