MODEL 1
REMARK minimizedAffinity -4.68306112
REMARK minimizedRMSD -1
REMARK  0 active torsions:
REMARK  status: ('A' for Active; 'I' for Inactive)
ROOT
ATOM      1  C   UNL d   1       2.651   2.105   1.313  0.00  0.00     0.077 C 
ATOM      2  C1  UNL d   1       1.299   1.572   0.941  0.00  0.00    -0.074 A 
ATOM      3  C2  UNL d   1       0.167   2.393   0.979  0.00  0.00    -0.005 A 
ATOM      4  C3  UNL d   1      -1.081   1.885   0.621  0.00  0.00     0.006 A 
ATOM      5  C4  UNL d   1      -1.211   0.554   0.222  0.00  0.00    -0.005 A 
ATOM      6  C5  UNL d   1      -0.090  -0.281   0.177  0.00  0.00    -0.074 A 
ATOM      7  C6  UNL d   1      -0.211  -1.711  -0.258  0.00  0.00     0.077 C 
ATOM      8  C7  UNL d   1       1.162   0.238   0.532  0.00  0.00    -0.001 A 
ENDROOT
TORSDOF 0
ENDMDL
