MODEL 1
REMARK minimizedAffinity 9.6358099
REMARK minimizedRMSD -1
REMARK  0 active torsions:
REMARK  status: ('A' for Active; 'I' for Inactive)
ROOT
ATOM      1  C   UNL d   1      -1.375  -0.232   2.256  0.00  0.00     0.124 A 
ATOM      2  C1  UNL d   1      -2.177   0.520   3.103  0.00  0.00     0.062 A 
ATOM      3  C2  UNL d   1      -3.477   0.109   3.384  0.00  0.00     0.162 A 
ATOM      4  C3  UNL d   1      -3.982  -1.061   2.818  0.00  0.00    -0.034 A 
ATOM      5  C4  UNL d   1      -3.170  -1.812   1.967  0.00  0.00     0.162 A 
ATOM      6  C5  UNL d   1      -1.871  -1.396   1.689  0.00  0.00     0.062 A 
ATOM      7  F   UNL d   1      -1.098  -2.124   0.870  0.00  0.00    -0.097 F 
ATOM      8  F1  UNL d   1      -3.624  -2.942   1.406  0.00  0.00    -0.096 F 
ATOM      9  I   UNL d   1      -5.925  -1.680   3.236  0.00  0.00    -0.060 I 
ATOM     10  F2  UNL d   1      -4.229   0.855   4.206  0.00  0.00    -0.096 F 
ATOM     11  F3  UNL d   1      -1.699   1.647   3.652  0.00  0.00    -0.097 F 
ATOM     12  F4  UNL d   1      -0.125   0.167   1.987  0.00  0.00    -0.092 F 
ENDROOT
TORSDOF 0
ENDMDL
