MODEL 1
REMARK minimizedAffinity 9.41640377
REMARK minimizedRMSD -1
REMARK  0 active torsions:
REMARK  status: ('A' for Active; 'I' for Inactive)
ROOT
ATOM      1  C   UNL d   1       1.523   1.778  -1.451  0.00  0.00     0.124 A 
ATOM      2  C1  UNL d   1       2.067   1.413  -0.227  0.00  0.00     0.062 A 
ATOM      3  C2  UNL d   1       3.340   1.848   0.131  0.00  0.00     0.162 A 
ATOM      4  C3  UNL d   1       4.078   2.654  -0.736  0.00  0.00    -0.034 A 
ATOM      5  C4  UNL d   1       3.524   3.017  -1.965  0.00  0.00     0.162 A 
ATOM      6  C5  UNL d   1       2.252   2.580  -2.318  0.00  0.00     0.062 A 
ATOM      7  F   UNL d   1       1.728   2.934  -3.501  0.00  0.00    -0.097 F 
ATOM      8  F1  UNL d   1       4.206   3.791  -2.822  0.00  0.00    -0.096 F 
ATOM      9  I   UNL d   1       5.982   3.306  -0.205  0.00  0.00    -0.060 I 
ATOM     10  F2  UNL d   1       3.841   1.479   1.319  0.00  0.00    -0.096 F 
ATOM     11  F3  UNL d   1       1.365   0.638   0.613  0.00  0.00    -0.097 F 
ATOM     12  F4  UNL d   1       0.299   1.358  -1.793  0.00  0.00    -0.092 F 
ENDROOT
TORSDOF 0
ENDMDL
