MODEL 1
REMARK minimizedAffinity 27.0704021
REMARK minimizedRMSD -1
REMARK  0 active torsions:
REMARK  status: ('A' for Active; 'I' for Inactive)
ROOT
ATOM      1  C   UNL d   1       3.022   2.767  -4.358  0.00  0.00     0.124 A 
ATOM      2  C1  UNL d   1       4.107   3.561  -4.704  0.00  0.00     0.062 A 
ATOM      3  C2  UNL d   1       4.958   4.052  -3.719  0.00  0.00     0.162 A 
ATOM      4  C3  UNL d   1       4.729   3.750  -2.376  0.00  0.00    -0.034 A 
ATOM      5  C4  UNL d   1       3.635   2.952  -2.036  0.00  0.00     0.162 A 
ATOM      6  C5  UNL d   1       2.788   2.463  -3.024  0.00  0.00     0.062 A 
ATOM      7  F   UNL d   1       1.740   1.697  -2.688  0.00  0.00    -0.097 F 
ATOM      8  F1  UNL d   1       3.385   2.642  -0.755  0.00  0.00    -0.096 F 
ATOM      9  I   UNL d   1       5.999   4.482  -0.900  0.00  0.00    -0.060 I 
ATOM     10  F2  UNL d   1       5.999   4.816  -4.082  0.00  0.00    -0.096 F 
ATOM     11  F3  UNL d   1       4.336   3.856  -5.992  0.00  0.00    -0.097 F 
ATOM     12  F4  UNL d   1       2.204   2.297  -5.308  0.00  0.00    -0.092 F 
ENDROOT
TORSDOF 0
ENDMDL
