MODEL 1
REMARK minimizedAffinity 23.0797157
REMARK minimizedRMSD -1
REMARK  0 active torsions:
REMARK  status: ('A' for Active; 'I' for Inactive)
ROOT
ATOM      1  C   UNL d   1       3.028   1.862  -1.257  0.00  0.00     0.124 A 
ATOM      2  C1  UNL d   1       4.137   2.460  -0.674  0.00  0.00     0.062 A 
ATOM      3  C2  UNL d   1       4.932   3.330  -1.414  0.00  0.00     0.162 A 
ATOM      4  C3  UNL d   1       4.622   3.609  -2.745  0.00  0.00    -0.034 A 
ATOM      5  C4  UNL d   1       3.506   3.003  -3.324  0.00  0.00     0.162 A 
ATOM      6  C5  UNL d   1       2.713   2.134  -2.581  0.00  0.00     0.062 A 
ATOM      7  F   UNL d   1       1.642   1.558  -3.146  0.00  0.00    -0.097 F 
ATOM      8  F1  UNL d   1       3.178   3.249  -4.602  0.00  0.00    -0.096 F 
ATOM      9  I   UNL d   1       5.810   4.909  -3.854  0.00  0.00    -0.060 I 
ATOM     10  F2  UNL d   1       5.998   3.893  -0.825  0.00  0.00    -0.096 F 
ATOM     11  F3  UNL d   1       4.443   2.198   0.605  0.00  0.00    -0.097 F 
ATOM     12  F4  UNL d   1       2.264   1.025  -0.543  0.00  0.00    -0.092 F 
ENDROOT
TORSDOF 0
ENDMDL
