MODEL 1
REMARK minimizedAffinity 32.822094
REMARK minimizedRMSD -1
REMARK  0 active torsions:
REMARK  status: ('A' for Active; 'I' for Inactive)
ROOT
ATOM      1  C   UNL d   1      -2.361  -0.789   1.375  0.00  0.00     0.124 A 
ATOM      2  C1  UNL d   1      -1.759  -0.107   2.423  0.00  0.00     0.062 A 
ATOM      3  C2  UNL d   1      -0.552  -0.558   2.950  0.00  0.00     0.162 A 
ATOM      4  C3  UNL d   1       0.062  -1.697   2.429  0.00  0.00    -0.034 A 
ATOM      5  C4  UNL d   1      -0.550  -2.378   1.375  0.00  0.00     0.162 A 
ATOM      6  C5  UNL d   1      -1.756  -1.924   0.852  0.00  0.00     0.062 A 
ATOM      7  F   UNL d   1      -2.336  -2.584  -0.161  0.00  0.00    -0.097 F 
ATOM      8  F1  UNL d   1       0.013  -3.477   0.851  0.00  0.00    -0.096 F 
ATOM      9  I   UNL d   1       1.866  -2.374   3.215  0.00  0.00    -0.060 I 
ATOM     10  F2  UNL d   1       0.007   0.121   3.963  0.00  0.00    -0.096 F 
ATOM     11  F3  UNL d   1      -2.342   0.989   2.930  0.00  0.00    -0.097 F 
ATOM     12  F4  UNL d   1      -3.522  -0.354   0.870  0.00  0.00    -0.092 F 
ENDROOT
TORSDOF 0
ENDMDL
