MODEL 1
REMARK minimizedAffinity 21.9834938
REMARK minimizedRMSD -1
REMARK  0 active torsions:
REMARK  status: ('A' for Active; 'I' for Inactive)
ROOT
ATOM      1  C   UNL d   1      -2.535  -0.664   1.963  0.00  0.00     0.124 A 
ATOM      2  C1  UNL d   1      -3.828  -0.162   2.003  0.00  0.00     0.062 A 
ATOM      3  C2  UNL d   1      -4.196   0.746   2.992  0.00  0.00     0.162 A 
ATOM      4  C3  UNL d   1      -3.269   1.159   3.948  0.00  0.00    -0.034 A 
ATOM      5  C4  UNL d   1      -1.970   0.650   3.902  0.00  0.00     0.162 A 
ATOM      6  C5  UNL d   1      -1.607  -0.258   2.912  0.00  0.00     0.062 A 
ATOM      7  F   UNL d   1      -0.357  -0.741   2.874  0.00  0.00    -0.097 F 
ATOM      8  F1  UNL d   1      -1.053   1.026   4.806  0.00  0.00    -0.096 F 
ATOM      9  I   UNL d   1      -3.815   2.517   5.428  0.00  0.00    -0.060 I 
ATOM     10  F2  UNL d   1      -5.453   1.215   3.007  0.00  0.00    -0.096 F 
ATOM     11  F3  UNL d   1      -4.727  -0.553   1.088  0.00  0.00    -0.097 F 
ATOM     12  F4  UNL d   1      -2.184  -1.538   1.011  0.00  0.00    -0.092 F 
ENDROOT
TORSDOF 0
ENDMDL
