MODEL 1
REMARK minimizedAffinity 24.5862064
REMARK minimizedRMSD -1
REMARK  0 active torsions:
REMARK  status: ('A' for Active; 'I' for Inactive)
ROOT
ATOM      1  C   UNL d   1      -3.790   0.358   2.355  0.00  0.00     0.124 A 
ATOM      2  C1  UNL d   1      -3.380  -0.451   1.305  0.00  0.00     0.062 A 
ATOM      3  C2  UNL d   1      -2.073  -0.930   1.259  0.00  0.00     0.162 A 
ATOM      4  C3  UNL d   1      -1.167  -0.601   2.267  0.00  0.00    -0.034 A 
ATOM      5  C4  UNL d   1      -1.587   0.214   3.320  0.00  0.00     0.162 A 
ATOM      6  C5  UNL d   1      -2.893   0.690   3.361  0.00  0.00     0.062 A 
ATOM      7  F   UNL d   1      -3.288   1.472   4.377  0.00  0.00    -0.097 F 
ATOM      8  F1  UNL d   1      -0.742   0.550   4.306  0.00  0.00    -0.096 F 
ATOM      9  I   UNL d   1       0.787  -1.314   2.201  0.00  0.00    -0.060 I 
ATOM     10  F2  UNL d   1      -1.705  -1.710   0.232  0.00  0.00    -0.096 F 
ATOM     11  F3  UNL d   1      -4.244  -0.773   0.331  0.00  0.00    -0.097 F 
ATOM     12  F4  UNL d   1      -5.047   0.818   2.397  0.00  0.00    -0.092 F 
ENDROOT
TORSDOF 0
ENDMDL
