MODEL 1
REMARK minimizedAffinity 34.2131119
REMARK minimizedRMSD -1
REMARK  0 active torsions:
REMARK  status: ('A' for Active; 'I' for Inactive)
ROOT
ATOM      1  C   UNL d   1      -4.836   0.280   0.514  0.00  0.00     0.124 A 
ATOM      2  C1  UNL d   1      -5.018   0.119  -0.853  0.00  0.00     0.062 A 
ATOM      3  C2  UNL d   1      -4.184  -0.729  -1.575  0.00  0.00     0.162 A 
ATOM      4  C3  UNL d   1      -3.160  -1.424  -0.931  0.00  0.00    -0.034 A 
ATOM      5  C4  UNL d   1      -2.982  -1.256   0.443  0.00  0.00     0.162 A 
ATOM      6  C5  UNL d   1      -3.819  -0.407   1.160  0.00  0.00     0.062 A 
ATOM      7  F   UNL d   1      -3.641  -0.253   2.481  0.00  0.00    -0.097 F 
ATOM      8  F1  UNL d   1      -2.007  -1.909   1.093  0.00  0.00    -0.096 F 
ATOM      9  I   UNL d   1      -1.910  -2.694  -2.007  0.00  0.00    -0.060 I 
ATOM     10  F2  UNL d   1      -4.383  -0.866  -2.894  0.00  0.00    -0.096 F 
ATOM     11  F3  UNL d   1      -6.000   0.783  -1.480  0.00  0.00    -0.097 F 
ATOM     12  F4  UNL d   1      -5.640   1.098   1.206  0.00  0.00    -0.092 F 
ENDROOT
TORSDOF 0
ENDMDL
