MODEL 1
REMARK minimizedAffinity 19.7027397
REMARK minimizedRMSD -1
REMARK  0 active torsions:
REMARK  status: ('A' for Active; 'I' for Inactive)
ROOT
ATOM      1  C   UNL d   1      -1.535  -1.994   1.302  0.00  0.00     0.124 A 
ATOM      2  C1  UNL d   1      -0.711  -3.075   1.020  0.00  0.00     0.062 A 
ATOM      3  C2  UNL d   1       0.549  -3.166   1.603  0.00  0.00     0.162 A 
ATOM      4  C3  UNL d   1       0.994  -2.173   2.476  0.00  0.00    -0.034 A 
ATOM      5  C4  UNL d   1       0.160  -1.088   2.754  0.00  0.00     0.162 A 
ATOM      6  C5  UNL d   1      -1.099  -1.002   2.169  0.00  0.00     0.062 A 
ATOM      7  F   UNL d   1      -1.893   0.043   2.442  0.00  0.00    -0.097 F 
ATOM      8  F1  UNL d   1       0.556  -0.116   3.589  0.00  0.00    -0.096 F 
ATOM      9  I   UNL d   1       2.878  -2.305   3.351  0.00  0.00    -0.060 I 
ATOM     10  F2  UNL d   1       1.324  -4.222   1.313  0.00  0.00    -0.096 F 
ATOM     11  F3  UNL d   1      -1.130  -4.035   0.182  0.00  0.00    -0.097 F 
ATOM     12  F4  UNL d   1      -2.747  -1.909   0.738  0.00  0.00    -0.092 F 
ENDROOT
TORSDOF 0
ENDMDL
