MODEL 1
REMARK minimizedAffinity 22.8792992
REMARK minimizedRMSD -1
REMARK  0 active torsions:
REMARK  status: ('A' for Active; 'I' for Inactive)
ROOT
ATOM      1  C   UNL d   1       2.250   1.920  -1.874  0.00  0.00     0.124 A 
ATOM      2  C1  UNL d   1       3.151   2.778  -2.490  0.00  0.00     0.062 A 
ATOM      3  C2  UNL d   1       4.222   3.300  -1.772  0.00  0.00     0.162 A 
ATOM      4  C3  UNL d   1       4.399   2.967  -0.429  0.00  0.00    -0.034 A 
ATOM      5  C4  UNL d   1       3.488   2.105   0.184  0.00  0.00     0.162 A 
ATOM      6  C5  UNL d   1       2.419   1.585  -0.538  0.00  0.00     0.062 A 
ATOM      7  F   UNL d   1       1.549   0.757   0.058  0.00  0.00    -0.097 F 
ATOM      8  F1  UNL d   1       3.628   1.763   1.473  0.00  0.00    -0.096 F 
ATOM      9  I   UNL d   1       6.000   3.747   0.649  0.00  0.00    -0.060 I 
ATOM     10  F2  UNL d   1       5.078   4.126  -2.392  0.00  0.00    -0.096 F 
ATOM     11  F3  UNL d   1       2.989   3.104  -3.780  0.00  0.00    -0.097 F 
ATOM     12  F4  UNL d   1       1.219   1.419  -2.568  0.00  0.00    -0.092 F 
ENDROOT
TORSDOF 0
ENDMDL
