MODEL 1
REMARK minimizedAffinity 19.4192104
REMARK minimizedRMSD -1
REMARK  0 active torsions:
REMARK  status: ('A' for Active; 'I' for Inactive)
ROOT
ATOM      1  C   UNL d   1      -5.023  -1.223   2.671  0.00  0.00     0.124 A 
ATOM      2  C1  UNL d   1      -4.642  -1.181   4.005  0.00  0.00     0.062 A 
ATOM      3  C2  UNL d   1      -4.695   0.017   4.711  0.00  0.00     0.162 A 
ATOM      4  C3  UNL d   1      -5.132   1.184   4.084  0.00  0.00    -0.034 A 
ATOM      5  C4  UNL d   1      -5.513   1.134   2.742  0.00  0.00     0.162 A 
ATOM      6  C5  UNL d   1      -5.458  -0.066   2.041  0.00  0.00     0.062 A 
ATOM      7  F   UNL d   1      -5.826  -0.104   0.752  0.00  0.00    -0.097 F 
ATOM      8  F1  UNL d   1      -5.938   2.238   2.109  0.00  0.00    -0.096 F 
ATOM      9  I   UNL d   1      -5.214   2.978   5.136  0.00  0.00    -0.060 I 
ATOM     10  F2  UNL d   1      -4.322   0.028   5.999  0.00  0.00    -0.096 F 
ATOM     11  F3  UNL d   1      -4.221  -2.298   4.616  0.00  0.00    -0.097 F 
ATOM     12  F4  UNL d   1      -4.970  -2.377   1.994  0.00  0.00    -0.092 F 
ENDROOT
TORSDOF 0
ENDMDL
