MODEL 1
REMARK minimizedAffinity 11.7310228
REMARK minimizedRMSD -1
REMARK  0 active torsions:
REMARK  status: ('A' for Active; 'I' for Inactive)
ROOT
ATOM      1  C   UNL d   1       2.256   1.877  -1.603  0.00  0.00     0.124 A 
ATOM      2  C1  UNL d   1       3.156   2.673  -2.297  0.00  0.00     0.062 A 
ATOM      3  C2  UNL d   1       4.225   3.265  -1.632  0.00  0.00     0.162 A 
ATOM      4  C3  UNL d   1       4.402   3.062  -0.263  0.00  0.00    -0.034 A 
ATOM      5  C4  UNL d   1       3.492   2.260   0.429  0.00  0.00     0.162 A 
ATOM      6  C5  UNL d   1       2.425   1.671  -0.241  0.00  0.00     0.062 A 
ATOM      7  F   UNL d   1       1.556   0.901   0.432  0.00  0.00    -0.097 F 
ATOM      8  F1  UNL d   1       3.632   2.043   1.745  0.00  0.00    -0.096 F 
ATOM      9  I   UNL d   1       6.000   3.945   0.736  0.00  0.00    -0.060 I 
ATOM     10  F2  UNL d   1       5.079   4.030  -2.328  0.00  0.00    -0.096 F 
ATOM     11  F3  UNL d   1       2.994   2.875  -3.613  0.00  0.00    -0.097 F 
ATOM     12  F4  UNL d   1       1.227   1.309  -2.246  0.00  0.00    -0.092 F 
ENDROOT
TORSDOF 0
ENDMDL
