MODEL 1
REMARK minimizedAffinity 34.8146858
REMARK minimizedRMSD -1
REMARK  0 active torsions:
REMARK  status: ('A' for Active; 'I' for Inactive)
ROOT
ATOM      1  C   UNL d   1       1.369   3.810  -2.093  0.00  0.00     0.124 A 
ATOM      2  C1  UNL d   1       1.884   2.692  -2.736  0.00  0.00     0.062 A 
ATOM      3  C2  UNL d   1       3.206   2.682  -3.172  0.00  0.00     0.162 A 
ATOM      4  C3  UNL d   1       4.023   3.794  -2.966  0.00  0.00    -0.034 A 
ATOM      5  C4  UNL d   1       3.498   4.914  -2.319  0.00  0.00     0.162 A 
ATOM      6  C5  UNL d   1       2.176   4.919  -1.886  0.00  0.00     0.062 A 
ATOM      7  F   UNL d   1       1.681   6.000  -1.265  0.00  0.00    -0.097 F 
ATOM      8  F1  UNL d   1       4.256   6.000  -2.105  0.00  0.00    -0.096 F 
ATOM      9  I   UNL d   1       6.000   3.783  -3.616  0.00  0.00    -0.060 I 
ATOM     10  F2  UNL d   1       3.677   1.589  -3.790  0.00  0.00    -0.096 F 
ATOM     11  F3  UNL d   1       1.106   1.619  -2.938  0.00  0.00    -0.097 F 
ATOM     12  F4  UNL d   1       0.097   3.817  -1.676  0.00  0.00    -0.092 F 
ENDROOT
TORSDOF 0
ENDMDL
