MODEL 1
REMARK minimizedAffinity 22.7020473
REMARK minimizedRMSD -1
REMARK  0 active torsions:
REMARK  status: ('A' for Active; 'I' for Inactive)
ROOT
ATOM      1  C   UNL d   1       2.872   1.756  -2.195  0.00  0.00     0.124 A 
ATOM      2  C1  UNL d   1       2.864   1.450  -0.841  0.00  0.00     0.062 A 
ATOM      3  C2  UNL d   1       3.757   2.078   0.023  0.00  0.00     0.162 A 
ATOM      4  C3  UNL d   1       4.664   3.019  -0.464  0.00  0.00    -0.034 A 
ATOM      5  C4  UNL d   1       4.666   3.320  -1.827  0.00  0.00     0.162 A 
ATOM      6  C5  UNL d   1       3.772   2.690  -2.687  0.00  0.00     0.062 A 
ATOM      7  F   UNL d   1       3.781   2.987  -3.994  0.00  0.00    -0.097 F 
ATOM      8  F1  UNL d   1       5.525   4.220  -2.329  0.00  0.00    -0.096 F 
ATOM      9  I   UNL d   1       6.000   3.960   0.825  0.00  0.00    -0.060 I 
ATOM     10  F2  UNL d   1       3.727   1.763   1.327  0.00  0.00    -0.096 F 
ATOM     11  F3  UNL d   1       1.996   0.547  -0.364  0.00  0.00    -0.097 F 
ATOM     12  F4  UNL d   1       2.013   1.150  -3.025  0.00  0.00    -0.092 F 
ENDROOT
TORSDOF 0
ENDMDL
