MODEL 1
REMARK minimizedAffinity 6.0794692
REMARK minimizedRMSD -1
REMARK  0 active torsions:
REMARK  status: ('A' for Active; 'I' for Inactive)
ROOT
ATOM      1  O1  BZF d   1       0.470  -0.842   1.026  0.00  0.00    -0.204 OA
ATOM      2  C2  BZF d   1       0.452  -1.532  -0.171  0.00  0.00     0.174 A 
ATOM      3  C3  BZF d   1       1.239  -2.625  -0.106  0.00  0.00    -0.012 A 
ATOM      4  C3A BZF d   1       1.711  -2.669   1.244  0.00  0.00    -0.107 A 
ATOM      5  C4  BZF d   1       2.519  -3.530   1.929  0.00  0.00     0.055 A 
ATOM      6  C5  BZF d   1       2.843  -3.249   3.218  0.00  0.00    -0.016 A 
ATOM      7  C6  BZF d   1       2.382  -2.113   3.851  0.00  0.00     0.022 A 
ATOM      8  C7  BZF d   1       1.573  -1.231   3.215  0.00  0.00     0.029 A 
ATOM      9  C7A BZF d   1       1.217  -1.530   1.922  0.00  0.00     0.058 A 
ENDROOT
TORSDOF 0
ENDMDL
