MODEL 1
REMARK minimizedAffinity 10.358201
REMARK minimizedRMSD -1
REMARK  0 active torsions:
REMARK  status: ('A' for Active; 'I' for Inactive)
ROOT
ATOM      1  O1  BZF d   1       0.162  -0.623   2.245  0.00  0.00    -0.204 OA
ATOM      2  C2  BZF d   1       1.431  -1.124   2.461  0.00  0.00     0.174 A 
ATOM      3  C3  BZF d   1       1.853  -1.832   1.393  0.00  0.00    -0.012 A 
ATOM      4  C3A BZF d   1       0.818  -1.692   0.415  0.00  0.00    -0.107 A 
ATOM      5  C4  BZF d   1       0.663  -2.154  -0.860  0.00  0.00     0.055 A 
ATOM      6  C5  BZF d   1      -0.499  -1.900  -1.518  0.00  0.00    -0.016 A 
ATOM      7  C6  BZF d   1      -1.526  -1.192  -0.930  0.00  0.00     0.022 A 
ATOM      8  C7  BZF d   1      -1.417  -0.709   0.332  0.00  0.00     0.029 A 
ATOM      9  C7A BZF d   1      -0.231  -0.936   0.987  0.00  0.00     0.058 A 
ENDROOT
TORSDOF 0
ENDMDL
