MODEL 1
REMARK minimizedAffinity 16.0030403
REMARK minimizedRMSD -1
REMARK  0 active torsions:
REMARK  status: ('A' for Active; 'I' for Inactive)
ROOT
ATOM      1  O1  BZF d   1      -4.705   2.360   2.955  0.00  0.00    -0.204 OA
ATOM      2  C2  BZF d   1      -5.998   2.531   2.498  0.00  0.00     0.174 A 
ATOM      3  C3  BZF d   1      -6.000   2.998   1.233  0.00  0.00    -0.012 A 
ATOM      4  C3A BZF d   1      -4.623   3.040   0.845  0.00  0.00    -0.107 A 
ATOM      5  C4  BZF d   1      -3.982   3.402  -0.306  0.00  0.00     0.055 A 
ATOM      6  C5  BZF d   1      -2.624   3.397  -0.334  0.00  0.00    -0.016 A 
ATOM      7  C6  BZF d   1      -1.875   3.043   0.769  0.00  0.00     0.022 A 
ATOM      8  C7  BZF d   1      -2.466   2.671   1.931  0.00  0.00     0.029 A 
ATOM      9  C7A BZF d   1      -3.839   2.643   1.953  0.00  0.00     0.058 A 
ENDROOT
TORSDOF 0
ENDMDL
