MODEL 1
REMARK minimizedAffinity 16.3046589
REMARK minimizedRMSD -1
REMARK  0 active torsions:
REMARK  status: ('A' for Active; 'I' for Inactive)
ROOT
ATOM      1  O1  BZF d   1       2.036  -0.699   4.247  0.00  0.00    -0.204 OA
ATOM      2  C2  BZF d   1       1.807  -0.389   2.921  0.00  0.00     0.174 A 
ATOM      3  C3  BZF d   1       1.994  -1.471   2.138  0.00  0.00    -0.012 A 
ATOM      4  C3A BZF d   1       2.272  -2.546   3.041  0.00  0.00    -0.107 A 
ATOM      5  C4  BZF d   1       2.529  -3.876   2.868  0.00  0.00     0.055 A 
ATOM      6  C5  BZF d   1       2.832  -4.637   3.952  0.00  0.00    -0.016 A 
ATOM      7  C6  BZF d   1       2.891  -4.101   5.222  0.00  0.00     0.022 A 
ATOM      8  C7  BZF d   1       2.639  -2.788   5.444  0.00  0.00     0.029 A 
ATOM      9  C7A BZF d   1       2.300  -2.023   4.355  0.00  0.00     0.058 A 
ENDROOT
TORSDOF 0
ENDMDL
