MODEL 1
REMARK minimizedAffinity 14.4098825
REMARK minimizedRMSD -1
REMARK  0 active torsions:
REMARK  status: ('A' for Active; 'I' for Inactive)
ROOT
ATOM      1  O1  BZF d   1       3.842  -0.388   2.356  0.00  0.00    -0.204 OA
ATOM      2  C2  BZF d   1       2.765   0.364   1.929  0.00  0.00     0.174 A 
ATOM      3  C3  BZF d   1       1.607  -0.290   2.151  0.00  0.00    -0.012 A 
ATOM      4  C3A BZF d   1       1.977  -1.488   2.839  0.00  0.00    -0.107 A 
ATOM      5  C4  BZF d   1       1.266  -2.539   3.343  0.00  0.00     0.055 A 
ATOM      6  C5  BZF d   1       1.935  -3.587   3.893  0.00  0.00    -0.016 A 
ATOM      7  C6  BZF d   1       3.313  -3.618   3.950  0.00  0.00     0.022 A 
ATOM      8  C7  BZF d   1       4.061  -2.596   3.468  0.00  0.00     0.029 A 
ATOM      9  C7A BZF d   1       3.387  -1.522   2.942  0.00  0.00     0.058 A 
ENDROOT
TORSDOF 0
ENDMDL
