MODEL 1
REMARK minimizedAffinity 8.96032524
REMARK minimizedRMSD -1
REMARK  0 active torsions:
REMARK  status: ('A' for Active; 'I' for Inactive)
ROOT
ATOM      1  O1  BZF d   1       3.869   0.005   1.528  0.00  0.00    -0.204 OA
ATOM      2  C2  BZF d   1       3.091   1.135   1.368  0.00  0.00     0.174 A 
ATOM      3  C3  BZF d   1       1.992   1.074   2.147  0.00  0.00    -0.012 A 
ATOM      4  C3A BZF d   1       2.137  -0.129   2.907  0.00  0.00    -0.107 A 
ATOM      5  C4  BZF d   1       1.374  -0.731   3.867  0.00  0.00     0.055 A 
ATOM      6  C5  BZF d   1       1.759  -1.938   4.357  0.00  0.00    -0.016 A 
ATOM      7  C6  BZF d   1       2.897  -2.575   3.906  0.00  0.00     0.022 A 
ATOM      8  C7  BZF d   1       3.689  -2.015   2.959  0.00  0.00     0.029 A 
ATOM      9  C7A BZF d   1       3.319  -0.780   2.486  0.00  0.00     0.058 A 
ENDROOT
TORSDOF 0
ENDMDL
