MODEL 1
REMARK minimizedAffinity 9.40417004
REMARK minimizedRMSD -1
REMARK  0 active torsions:
REMARK  status: ('A' for Active; 'I' for Inactive)
ROOT
ATOM      1  O1  BZF d   1       5.387  -0.746   1.816  0.00  0.00    -0.204 OA
ATOM      2  C2  BZF d   1       5.999  -1.678   2.631  0.00  0.00     0.174 A 
ATOM      3  C3  BZF d   1       5.107  -2.233   3.476  0.00  0.00    -0.012 A 
ATOM      4  C3A BZF d   1       3.842  -1.675   3.108  0.00  0.00    -0.107 A 
ATOM      5  C4  BZF d   1       2.569  -1.849   3.570  0.00  0.00     0.055 A 
ATOM      6  C5  BZF d   1       1.566  -1.098   3.043  0.00  0.00    -0.016 A 
ATOM      7  C6  BZF d   1       1.802  -0.163   2.056  0.00  0.00     0.022 A 
ATOM      8  C7  BZF d   1       3.047   0.041   1.562  0.00  0.00     0.029 A 
ATOM      9  C7A BZF d   1       4.057  -0.739   2.070  0.00  0.00     0.058 A 
ENDROOT
TORSDOF 0
ENDMDL
