MODEL 1
REMARK minimizedAffinity 8.36482716
REMARK minimizedRMSD -1
REMARK  0 active torsions:
REMARK  status: ('A' for Active; 'I' for Inactive)
ROOT
ATOM      1  O1  BZF d   1       1.877  -0.064   3.880  0.00  0.00    -0.204 OA
ATOM      2  C2  BZF d   1       1.805  -1.414   3.592  0.00  0.00     0.174 A 
ATOM      3  C3  BZF d   1       2.237  -1.659   2.338  0.00  0.00    -0.012 A 
ATOM      4  C3A BZF d   1       2.689  -0.396   1.842  0.00  0.00    -0.107 A 
ATOM      5  C4  BZF d   1       3.243   0.005   0.660  0.00  0.00     0.055 A 
ATOM      6  C5  BZF d   1       3.503   1.325   0.466  0.00  0.00    -0.016 A 
ATOM      7  C6  BZF d   1       3.217   2.270   1.429  0.00  0.00     0.022 A 
ATOM      8  C7  BZF d   1       2.672   1.920   2.619  0.00  0.00     0.029 A 
ATOM      9  C7A BZF d   1       2.438   0.583   2.831  0.00  0.00     0.058 A 
ENDROOT
TORSDOF 0
ENDMDL
