MODEL 1
REMARK minimizedAffinity 7.88101387
REMARK minimizedRMSD -1
REMARK  0 active torsions:
REMARK  status: ('A' for Active; 'I' for Inactive)
ROOT
ATOM      1  O1  BZF d   1      -5.956   0.086  -2.301  0.00  0.00    -0.204 OA
ATOM      2  C2  BZF d   1      -5.907   1.208  -1.496  0.00  0.00     0.174 A 
ATOM      3  C3  BZF d   1      -5.836   2.330  -2.243  0.00  0.00    -0.012 A 
ATOM      4  C3A BZF d   1      -5.934   1.885  -3.599  0.00  0.00    -0.107 A 
ATOM      5  C4  BZF d   1      -5.940   2.534  -4.801  0.00  0.00     0.055 A 
ATOM      6  C5  BZF d   1      -5.975   1.802  -5.946  0.00  0.00    -0.016 A 
ATOM      7  C6  BZF d   1      -5.999   0.423  -5.926  0.00  0.00     0.022 A 
ATOM      8  C7  BZF d   1      -6.000  -0.264  -4.758  0.00  0.00     0.029 A 
ATOM      9  C7A BZF d   1      -5.997   0.473  -3.599  0.00  0.00     0.058 A 
ENDROOT
TORSDOF 0
ENDMDL
