MODEL 1
REMARK minimizedAffinity 10.650774
REMARK minimizedRMSD -1
REMARK  0 active torsions:
REMARK  status: ('A' for Active; 'I' for Inactive)
ROOT
ATOM      1  O1  BZF d   1       1.127  -1.440   3.163  0.00  0.00    -0.204 OA
ATOM      2  C2  BZF d   1       1.748  -0.264   2.793  0.00  0.00     0.174 A 
ATOM      3  C3  BZF d   1       3.017  -0.228   3.250  0.00  0.00    -0.012 A 
ATOM      4  C3A BZF d   1       3.228  -1.500   3.871  0.00  0.00    -0.107 A 
ATOM      5  C4  BZF d   1       4.299  -2.073   4.497  0.00  0.00     0.055 A 
ATOM      6  C5  BZF d   1       4.155  -3.302   5.059  0.00  0.00    -0.016 A 
ATOM      7  C6  BZF d   1       2.956  -3.983   5.018  0.00  0.00     0.022 A 
ATOM      8  C7  BZF d   1       1.868  -3.458   4.404  0.00  0.00     0.029 A 
ATOM      9  C7A BZF d   1       2.019  -2.230   3.807  0.00  0.00     0.058 A 
ENDROOT
TORSDOF 0
ENDMDL
