MODEL 1
REMARK minimizedAffinity 11.177598
REMARK minimizedRMSD -1
REMARK  0 active torsions:
REMARK  status: ('A' for Active; 'I' for Inactive)
ROOT
ATOM      1  O1  BZF d   1       2.519  -0.653   4.059  0.00  0.00    -0.204 OA
ATOM      2  C2  BZF d   1       1.989  -1.693   3.319  0.00  0.00     0.174 A 
ATOM      3  C3  BZF d   1       1.868  -1.344   2.022  0.00  0.00    -0.012 A 
ATOM      4  C3A BZF d   1       2.439  -0.035   1.930  0.00  0.00    -0.107 A 
ATOM      5  C4  BZF d   1       2.628   0.837   0.895  0.00  0.00     0.055 A 
ATOM      6  C5  BZF d   1       3.148   2.065   1.153  0.00  0.00    -0.016 A 
ATOM      7  C6  BZF d   1       3.487   2.457   2.432  0.00  0.00     0.022 A 
ATOM      8  C7  BZF d   1       3.323   1.625   3.489  0.00  0.00     0.029 A 
ATOM      9  C7A BZF d   1       2.828   0.371   3.227  0.00  0.00     0.058 A 
ENDROOT
TORSDOF 0
ENDMDL
