MODEL 1
REMARK minimizedAffinity -0.422322333
REMARK minimizedRMSD -1
REMARK  2 active torsions:
REMARK  status: ('A' for Active; 'I' for Inactive)
REMARK    1  A    between atoms: C2'_3  and  C1'_4 
REMARK    2  A    between atoms: C1'_4  and  C1_5 
ROOT
ATOM      1  C1  I4B d   1      -0.472   0.676   1.810  0.00  0.00    -0.075 A 
ATOM      2  C2  I4B d   1       0.569  -0.020   1.250  0.00  0.00     0.003 A 
ATOM      3  C3  I4B d   1       1.881   0.513   1.280  0.00  0.00     0.002 A 
ATOM      4  C4  I4B d   1       2.096   1.759   1.832  0.00  0.00    -0.004 A 
ATOM      5  C5  I4B d   1       1.043   2.453   2.421  0.00  0.00     0.002 A 
ATOM      6  C6  I4B d   1      -0.248   1.903   2.421  0.00  0.00     0.003 A 
ENDROOT
BRANCH   1   7
ATOM      7  C1' I4B d   1      -1.850   0.099   1.731  0.00  0.00     0.060 C 
BRANCH   7   8
ATOM      8  C2' I4B d   1      -2.207  -0.059   0.267  0.00  0.00    -0.013 C 
ATOM      9  C4' I4B d   1      -2.489  -1.499  -0.072  0.00  0.00     0.013 C 
ATOM     10  C3' I4B d   1      -3.397   0.807  -0.016  0.00  0.00     0.013 C 
ENDBRANCH   7   8
ENDBRANCH   1   7
TORSDOF 2
ENDMDL
