MODEL 1
REMARK minimizedAffinity 4.78019619
REMARK minimizedRMSD -1
REMARK  2 active torsions:
REMARK  status: ('A' for Active; 'I' for Inactive)
REMARK    1  A    between atoms: C2'_3  and  C1'_4 
REMARK    2  A    between atoms: C1'_4  and  C1_5 
ROOT
ATOM      1  C1  I4B d   1      -0.504  -0.328  -0.412  0.00  0.00    -0.075 A 
ATOM      2  C2  I4B d   1      -1.585  -1.135  -0.159  0.00  0.00     0.003 A 
ATOM      3  C3  I4B d   1      -2.864  -0.567   0.055  0.00  0.00     0.002 A 
ATOM      4  C4  I4B d   1      -3.006   0.806   0.058  0.00  0.00    -0.004 A 
ATOM      5  C5  I4B d   1      -1.914   1.622  -0.222  0.00  0.00     0.002 A 
ATOM      6  C6  I4B d   1      -0.657   1.051  -0.470  0.00  0.00     0.003 A 
ENDROOT
BRANCH   1   7
ATOM      7  C1' I4B d   1       0.839  -0.959  -0.602  0.00  0.00     0.060 C 
BRANCH   7   8
ATOM      8  C2' I4B d   1       1.877  -0.042   0.012  0.00  0.00    -0.013 C 
ATOM      9  C4' I4B d   1       2.835  -0.810   0.885  0.00  0.00     0.013 C 
ATOM     10  C3' I4B d   1       2.599   0.653  -1.103  0.00  0.00     0.013 C 
ENDBRANCH   7   8
ENDBRANCH   1   7
TORSDOF 2
ENDMDL
