MODEL 1
REMARK minimizedAffinity -0.689160883
REMARK minimizedRMSD -1
REMARK  2 active torsions:
REMARK  status: ('A' for Active; 'I' for Inactive)
REMARK    1  A    between atoms: C2'_3  and  C1'_4 
REMARK    2  A    between atoms: C1'_4  and  C1_5 
ROOT
ATOM      1  C1  I4B d   1       0.703   0.125  -2.216  0.00  0.00    -0.075 A 
ATOM      2  C2  I4B d   1       1.757   0.652  -1.511  0.00  0.00     0.003 A 
ATOM      3  C3  I4B d   1       2.692   1.499  -2.153  0.00  0.00     0.002 A 
ATOM      4  C4  I4B d   1       2.565   1.750  -3.504  0.00  0.00    -0.004 A 
ATOM      5  C5  I4B d   1       1.484   1.234  -4.212  0.00  0.00     0.002 A 
ATOM      6  C6  I4B d   1       0.540   0.426  -3.562  0.00  0.00     0.003 A 
ENDROOT
BRANCH   1   7
ATOM      7  C1' I4B d   1      -0.247  -0.792  -1.513  0.00  0.00     0.060 C 
BRANCH   7   8
ATOM      8  C2' I4B d   1      -0.194  -0.475  -0.033  0.00  0.00    -0.013 C 
ATOM      9  C4' I4B d   1      -1.523  -0.729   0.627  0.00  0.00     0.013 C 
ATOM     10  C3' I4B d   1       0.885  -1.316   0.582  0.00  0.00     0.013 C 
ENDBRANCH   7   8
ENDBRANCH   1   7
TORSDOF 2
ENDMDL
