MODEL 1
REMARK minimizedAffinity -4.97671652
REMARK minimizedRMSD -1
REMARK  2 active torsions:
REMARK  status: ('A' for Active; 'I' for Inactive)
REMARK    1  A    between atoms: C2'_3  and  C1'_4 
REMARK    2  A    between atoms: C1'_4  and  C1_5 
ROOT
ATOM      1  C1  I4B d   1       0.315  -0.344  -0.033  0.00  0.00    -0.075 A 
ATOM      2  C2  I4B d   1       1.126   0.032   1.009  0.00  0.00     0.003 A 
ATOM      3  C3  I4B d   1       0.578   0.687   2.138  0.00  0.00     0.002 A 
ATOM      4  C4  I4B d   1      -0.768   0.989   2.162  0.00  0.00    -0.004 A 
ATOM      5  C5  I4B d   1      -1.593   0.587   1.115  0.00  0.00     0.002 A 
ATOM      6  C6  I4B d   1      -1.050  -0.095   0.016  0.00  0.00     0.003 A 
ENDROOT
BRANCH   1   7
ATOM      7  C1' I4B d   1       0.933  -1.004  -1.225  0.00  0.00     0.060 C 
BRANCH   7   8
ATOM      8  C2' I4B d   1       0.761  -0.078  -2.412  0.00  0.00    -0.013 C 
ATOM      9  C4' I4B d   1       2.047   0.635  -2.738  0.00  0.00     0.013 C 
ATOM     10  C3' I4B d   1       0.288  -0.899  -3.575  0.00  0.00     0.013 C 
ENDBRANCH   7   8
ENDBRANCH   1   7
TORSDOF 2
ENDMDL
