MODEL 1
REMARK minimizedAffinity -1.37011266
REMARK minimizedRMSD -1
REMARK  1 active torsions:
REMARK  status: ('A' for Active; 'I' for Inactive)
REMARK    1  A    between atoms: C3_4  and  O_7 
ROOT
ATOM      1  C   UNL d   1      -0.629  -2.361   1.704  0.00  0.00    -0.033 A 
ATOM      2  C1  UNL d   1       0.305  -2.489   0.673  0.00  0.00     0.039 A 
ATOM      3  C2  UNL d   1       0.622  -1.387  -0.124  0.00  0.00    -0.080 A 
ATOM      4  C3  UNL d   1       0.001  -0.166   0.119  0.00  0.00     0.150 A 
ATOM      5  C4  UNL d   1      -0.927  -0.030   1.147  0.00  0.00    -0.007 A 
ATOM      6  C5  UNL d   1      -1.243  -1.131   1.941  0.00  0.00     0.039 A 
ENDROOT
BRANCH   4   7
ATOM      7  O   UNL d   1       0.275   0.936  -0.636  0.00  0.00    -0.526 OA
ATOM      8  H5  UNL d   1       0.912   0.686  -1.325  0.00  0.00     0.418 HD
ENDBRANCH   4   7
TORSDOF 1
ENDMDL
