MODEL 1
REMARK minimizedAffinity -4.79394579
REMARK minimizedRMSD -1
REMARK  1 active torsions:
REMARK  status: ('A' for Active; 'I' for Inactive)
REMARK    1  A    between atoms: C3_4  and  O_7 
ROOT
ATOM      1  C   UNL d   1      -0.151  -0.865  -0.590  0.00  0.00    -0.033 A 
ATOM      2  C1  UNL d   1       0.243  -1.237   0.697  0.00  0.00     0.039 A 
ATOM      3  C2  UNL d   1      -0.441  -2.250   1.372  0.00  0.00    -0.080 A 
ATOM      4  C3  UNL d   1      -1.514  -2.882   0.751  0.00  0.00     0.150 A 
ATOM      5  C4  UNL d   1      -1.910  -2.519  -0.533  0.00  0.00    -0.007 A 
ATOM      6  C5  UNL d   1      -1.226  -1.507  -1.205  0.00  0.00     0.039 A 
ENDROOT
BRANCH   4   7
ATOM      7  O   UNL d   1      -2.216  -3.872   1.372  0.00  0.00    -0.526 OA
ATOM      8  H5  UNL d   1      -1.848  -3.997   2.263  0.00  0.00     0.418 HD
ENDBRANCH   4   7
TORSDOF 1
ENDMDL
