MODEL 1
REMARK minimizedAffinity -5.18614626
REMARK minimizedRMSD -1
REMARK  1 active torsions:
REMARK  status: ('A' for Active; 'I' for Inactive)
REMARK    1  A    between atoms: C3_4  and  O_7 
ROOT
ATOM      1  C   UNL d   1       0.538   0.427  -0.255  0.00  0.00    -0.033 A 
ATOM      2  C1  UNL d   1      -0.814   0.646   0.012  0.00  0.00     0.039 A 
ATOM      3  C2  UNL d   1      -1.634  -0.418   0.396  0.00  0.00    -0.080 A 
ATOM      4  C3  UNL d   1      -1.088  -1.694   0.509  0.00  0.00     0.150 A 
ATOM      5  C4  UNL d   1       0.259  -1.918   0.249  0.00  0.00    -0.007 A 
ATOM      6  C5  UNL d   1       1.076  -0.855  -0.135  0.00  0.00     0.039 A 
ENDROOT
BRANCH   4   7
ATOM      7  O   UNL d   1      -1.849  -2.764   0.876  0.00  0.00    -0.526 OA
ATOM      8  H5  UNL d   1      -2.766  -2.463   0.995  0.00  0.00     0.418 HD
ENDBRANCH   4   7
TORSDOF 1
ENDMDL
