MODEL 1
REMARK minimizedAffinity -3.22895527
REMARK minimizedRMSD -1
REMARK  1 active torsions:
REMARK  status: ('A' for Active; 'I' for Inactive)
REMARK    1  A    between atoms: C3_4  and  O_7 
ROOT
ATOM      1  C   UNL d   1       0.180   0.054  -0.211  0.00  0.00    -0.033 A 
ATOM      2  C1  UNL d   1      -1.190  -0.112  -0.427  0.00  0.00     0.039 A 
ATOM      3  C2  UNL d   1      -1.815  -1.309  -0.073  0.00  0.00    -0.080 A 
ATOM      4  C3  UNL d   1      -1.060  -2.331   0.497  0.00  0.00     0.150 A 
ATOM      5  C4  UNL d   1       0.304  -2.171   0.719  0.00  0.00    -0.007 A 
ATOM      6  C5  UNL d   1       0.926  -0.975   0.364  0.00  0.00     0.039 A 
ENDROOT
BRANCH   4   7
ATOM      7  O   UNL d   1      -1.625  -3.519   0.855  0.00  0.00    -0.526 OA
ATOM      8  H5  UNL d   1      -2.566  -3.496   0.617  0.00  0.00     0.418 HD
ENDBRANCH   4   7
TORSDOF 1
ENDMDL
