MODEL 1
REMARK minimizedAffinity -4.73470926
REMARK minimizedRMSD -1
REMARK  1 active torsions:
REMARK  status: ('A' for Active; 'I' for Inactive)
REMARK    1  A    between atoms: C3_4  and  O_7 
ROOT
ATOM      1  C   UNL d   1       0.011   0.736   0.296  0.00  0.00    -0.033 A 
ATOM      2  C1  UNL d   1       0.862  -0.351   0.087  0.00  0.00     0.039 A 
ATOM      3  C2  UNL d   1       0.383  -1.654   0.240  0.00  0.00    -0.080 A 
ATOM      4  C3  UNL d   1      -0.947  -1.855   0.600  0.00  0.00     0.150 A 
ATOM      5  C4  UNL d   1      -1.801  -0.777   0.806  0.00  0.00    -0.007 A 
ATOM      6  C5  UNL d   1      -1.321   0.523   0.654  0.00  0.00     0.039 A 
ENDROOT
BRANCH   4   7
ATOM      7  O   UNL d   1      -1.458  -3.108   0.766  0.00  0.00    -0.526 OA
ATOM      8  H5  UNL d   1      -0.746  -3.753   0.619  0.00  0.00     0.418 HD
ENDBRANCH   4   7
TORSDOF 1
ENDMDL
