MODEL 1
REMARK minimizedAffinity -1.38586748
REMARK minimizedRMSD -1
REMARK  1 active torsions:
REMARK  status: ('A' for Active; 'I' for Inactive)
REMARK    1  A    between atoms: C3_4  and  O_7 
ROOT
ATOM      1  C   UNL d   1       0.353  -2.304   0.969  0.00  0.00    -0.033 A 
ATOM      2  C1  UNL d   1       0.519  -1.154   0.196  0.00  0.00     0.039 A 
ATOM      3  C2  UNL d   1      -0.451  -0.150   0.216  0.00  0.00    -0.080 A 
ATOM      4  C3  UNL d   1      -1.581  -0.309   1.014  0.00  0.00     0.150 A 
ATOM      5  C4  UNL d   1      -1.751  -1.450   1.791  0.00  0.00    -0.007 A 
ATOM      6  C5  UNL d   1      -0.781  -2.452   1.768  0.00  0.00     0.039 A 
ENDROOT
BRANCH   4   7
ATOM      7  O   UNL d   1      -2.557   0.642   1.064  0.00  0.00    -0.526 OA
ATOM      8  H5  UNL d   1      -2.318   1.360   0.455  0.00  0.00     0.418 HD
ENDBRANCH   4   7
TORSDOF 1
ENDMDL
