MODEL 1
REMARK minimizedAffinity -5.04498816
REMARK minimizedRMSD -1
REMARK  1 active torsions:
REMARK  status: ('A' for Active; 'I' for Inactive)
REMARK    1  A    between atoms: C3_4  and  O_7 
ROOT
ATOM      1  C   UNL d   1      -1.458  -2.620   1.400  0.00  0.00    -0.033 A 
ATOM      2  C1  UNL d   1      -2.230  -1.499   1.089  0.00  0.00     0.039 A 
ATOM      3  C2  UNL d   1      -1.648  -0.406   0.443  0.00  0.00    -0.080 A 
ATOM      4  C3  UNL d   1      -0.296  -0.447   0.115  0.00  0.00     0.150 A 
ATOM      5  C4  UNL d   1       0.478  -1.562   0.418  0.00  0.00    -0.007 A 
ATOM      6  C5  UNL d   1      -0.105  -2.652   1.064  0.00  0.00     0.039 A 
ENDROOT
BRANCH   4   7
ATOM      7  O   UNL d   1       0.317   0.597  -0.511  0.00  0.00    -0.526 OA
ATOM      8  H5  UNL d   1      -0.334   1.309  -0.632  0.00  0.00     0.418 HD
ENDBRANCH   4   7
TORSDOF 1
ENDMDL
