MODEL 1
REMARK minimizedAffinity -3.81413031
REMARK minimizedRMSD -1
REMARK  1 active torsions:
REMARK  status: ('A' for Active; 'I' for Inactive)
REMARK    1  A    between atoms: C3_4  and  O_7 
ROOT
ATOM      1  C   UNL d   1      -0.427  -1.062  -0.156  0.00  0.00    -0.033 A 
ATOM      2  C1  UNL d   1      -1.787  -1.086   0.162  0.00  0.00     0.039 A 
ATOM      3  C2  UNL d   1      -2.387   0.027   0.754  0.00  0.00    -0.080 A 
ATOM      4  C3  UNL d   1      -1.618   1.157   1.021  0.00  0.00     0.150 A 
ATOM      5  C4  UNL d   1      -0.265   1.189   0.704  0.00  0.00    -0.007 A 
ATOM      6  C5  UNL d   1       0.333   0.076   0.114  0.00  0.00     0.039 A 
ENDROOT
BRANCH   4   7
ATOM      7  O   UNL d   1      -2.159   2.265   1.602  0.00  0.00    -0.526 OA
ATOM      8  H5  UNL d   1      -3.096   2.088   1.791  0.00  0.00     0.418 HD
ENDBRANCH   4   7
TORSDOF 1
ENDMDL
