MODEL 1
REMARK minimizedAffinity -5.2278614
REMARK minimizedRMSD -1
REMARK  1 active torsions:
REMARK  status: ('A' for Active; 'I' for Inactive)
REMARK    1  A    between atoms: C3_4  and  O_7 
ROOT
ATOM      1  C   UNL d   1      -2.336  -2.459   1.396  0.00  0.00    -0.033 A 
ATOM      2  C1  UNL d   1      -1.222  -2.711   0.592  0.00  0.00     0.039 A 
ATOM      3  C2  UNL d   1      -0.346  -1.674   0.266  0.00  0.00    -0.080 A 
ATOM      4  C3  UNL d   1      -0.594  -0.392   0.748  0.00  0.00     0.150 A 
ATOM      5  C4  UNL d   1      -1.700  -0.135   1.552  0.00  0.00    -0.007 A 
ATOM      6  C5  UNL d   1      -2.574  -1.172   1.877  0.00  0.00     0.039 A 
ENDROOT
BRANCH   4   7
ATOM      7  O   UNL d   1       0.230   0.652   0.452  0.00  0.00    -0.526 OA
ATOM      8  H5  UNL d   1       0.935   0.332  -0.135  0.00  0.00     0.418 HD
ENDBRANCH   4   7
TORSDOF 1
ENDMDL
