MODEL 1
REMARK minimizedAffinity -3.86529326
REMARK minimizedRMSD -1
REMARK  1 active torsions:
REMARK  status: ('A' for Active; 'I' for Inactive)
REMARK    1  A    between atoms: C3_4  and  O_7 
ROOT
ATOM      1  C   UNL d   1      -0.438  -2.135   1.433  0.00  0.00    -0.033 A 
ATOM      2  C1  UNL d   1      -1.499  -1.282   1.126  0.00  0.00     0.039 A 
ATOM      3  C2  UNL d   1      -1.272  -0.124   0.379  0.00  0.00    -0.080 A 
ATOM      4  C3  UNL d   1       0.019   0.167  -0.055  0.00  0.00     0.150 A 
ATOM      5  C4  UNL d   1       1.080  -0.681   0.245  0.00  0.00    -0.007 A 
ATOM      6  C5  UNL d   1       0.851  -1.836   0.992  0.00  0.00     0.039 A 
ENDROOT
BRANCH   4   7
ATOM      7  O   UNL d   1       0.290   1.288  -0.782  0.00  0.00    -0.526 OA
ATOM      8  H5  UNL d   1      -0.533   1.793  -0.888  0.00  0.00     0.418 HD
ENDBRANCH   4   7
TORSDOF 1
ENDMDL
