MODEL 1
REMARK minimizedAffinity -2.62710071
REMARK minimizedRMSD -1
REMARK  1 active torsions:
REMARK  status: ('A' for Active; 'I' for Inactive)
REMARK    1  A    between atoms: C3_4  and  O_7 
ROOT
ATOM      1  C   UNL d   1       0.483   1.103  -0.327  0.00  0.00    -0.033 A 
ATOM      2  C1  UNL d   1       1.285  -0.041  -0.324  0.00  0.00     0.039 A 
ATOM      3  C2  UNL d   1       0.773  -1.253   0.141  0.00  0.00    -0.080 A 
ATOM      4  C3  UNL d   1      -0.540  -1.310   0.599  0.00  0.00     0.150 A 
ATOM      5  C4  UNL d   1      -1.346  -0.176   0.595  0.00  0.00    -0.007 A 
ATOM      6  C5  UNL d   1      -0.833   1.034   0.131  0.00  0.00     0.039 A 
ENDROOT
BRANCH   4   7
ATOM      7  O   UNL d   1      -1.083  -2.470   1.066  0.00  0.00    -0.526 OA
ATOM      8  H5  UNL d   1      -0.401  -3.163   1.036  0.00  0.00     0.418 HD
ENDBRANCH   4   7
TORSDOF 1
ENDMDL
