MODEL 1
REMARK minimizedAffinity -1.89905024
REMARK minimizedRMSD -1
REMARK  1 active torsions:
REMARK  status: ('A' for Active; 'I' for Inactive)
REMARK    1  A    between atoms: C3_4  and  O_7 
ROOT
ATOM      1  C   UNL d   1      -1.068   0.562   1.267  0.00  0.00    -0.033 A 
ATOM      2  C1  UNL d   1      -0.295  -0.323   0.513  0.00  0.00     0.039 A 
ATOM      3  C2  UNL d   1       0.465   0.149  -0.559  0.00  0.00    -0.080 A 
ATOM      4  C3  UNL d   1       0.444   1.507  -0.865  0.00  0.00     0.150 A 
ATOM      5  C4  UNL d   1      -0.320   2.395  -0.116  0.00  0.00    -0.007 A 
ATOM      6  C5  UNL d   1      -1.079   1.921   0.954  0.00  0.00     0.039 A 
ENDROOT
BRANCH   4   7
ATOM      7  O   UNL d   1       1.166   2.014  -1.905  0.00  0.00    -0.526 OA
ATOM      8  H5  UNL d   1       1.622   1.280  -2.350  0.00  0.00     0.418 HD
ENDBRANCH   4   7
TORSDOF 1
ENDMDL
