MODEL 1
REMARK minimizedAffinity -4.96889305
REMARK minimizedRMSD -1
REMARK  1 active torsions:
REMARK  status: ('A' for Active; 'I' for Inactive)
REMARK    1  A    between atoms: C3_4  and  O_7 
ROOT
ATOM      1  C   UNL d   1       1.155  -0.062   0.034  0.00  0.00    -0.033 A 
ATOM      2  C1  UNL d   1      -0.165   0.392   0.085  0.00  0.00     0.039 A 
ATOM      3  C2  UNL d   1      -1.198  -0.492   0.399  0.00  0.00    -0.080 A 
ATOM      4  C3  UNL d   1      -0.899  -1.827   0.661  0.00  0.00     0.150 A 
ATOM      5  C4  UNL d   1       0.413  -2.285   0.615  0.00  0.00    -0.007 A 
ATOM      6  C5  UNL d   1       1.444  -1.401   0.300  0.00  0.00     0.039 A 
ENDROOT
BRANCH   4   7
ATOM      7  O   UNL d   1      -1.875  -2.729   0.967  0.00  0.00    -0.526 OA
ATOM      8  H5  UNL d   1      -2.734  -2.276   0.933  0.00  0.00     0.418 HD
ENDBRANCH   4   7
TORSDOF 1
ENDMDL
