MODEL 1
REMARK minimizedAffinity -4.01160049
REMARK minimizedRMSD -1
REMARK  1 active torsions:
REMARK  status: ('A' for Active; 'I' for Inactive)
REMARK    1  A    between atoms: C3_4  and  O_7 
ROOT
ATOM      1  C   UNL d   1      -0.199  -0.833   0.438  0.00  0.00    -0.033 A 
ATOM      2  C1  UNL d   1      -1.514  -0.568   0.051  0.00  0.00     0.039 A 
ATOM      3  C2  UNL d   1      -2.576  -1.184   0.714  0.00  0.00    -0.080 A 
ATOM      4  C3  UNL d   1      -2.311  -2.062   1.762  0.00  0.00     0.150 A 
ATOM      5  C4  UNL d   1      -1.004  -2.328   2.156  0.00  0.00    -0.007 A 
ATOM      6  C5  UNL d   1       0.056  -1.712   1.492  0.00  0.00     0.039 A 
ENDROOT
BRANCH   4   7
ATOM      7  O   UNL d   1      -3.315  -2.691   2.436  0.00  0.00    -0.526 OA
ATOM      8  H5  UNL d   1      -4.163  -2.433   2.037  0.00  0.00     0.418 HD
ENDBRANCH   4   7
TORSDOF 1
ENDMDL
