MODEL 1
REMARK minimizedAffinity 0.317492396
REMARK minimizedRMSD -1
REMARK  1 active torsions:
REMARK  status: ('A' for Active; 'I' for Inactive)
REMARK    1  A    between atoms: C3_4  and  O_7 
ROOT
ATOM      1  C   UNL d   1      -2.050  -5.836  -5.980  0.00  0.00    -0.033 A 
ATOM      2  C1  UNL d   1      -1.497  -4.554  -5.975  0.00  0.00     0.039 A 
ATOM      3  C2  UNL d   1      -2.329  -3.433  -5.979  0.00  0.00    -0.080 A 
ATOM      4  C3  UNL d   1      -3.710  -3.607  -5.987  0.00  0.00     0.150 A 
ATOM      5  C4  UNL d   1      -4.268  -4.881  -5.989  0.00  0.00    -0.007 A 
ATOM      6  C5  UNL d   1      -3.436  -6.000  -5.986  0.00  0.00     0.039 A 
ENDROOT
BRANCH   4   7
ATOM      7  O   UNL d   1      -4.562  -2.543  -5.997  0.00  0.00    -0.526 OA
ATOM      8  H5  UNL d   1      -4.035  -1.727  -6.023  0.00  0.00     0.418 HD
ENDBRANCH   4   7
TORSDOF 1
ENDMDL
