MODEL 1
REMARK minimizedAffinity 7.19719505
REMARK minimizedRMSD -1
REMARK  3 active torsions:
REMARK  status: ('A' for Active; 'I' for Inactive)
REMARK    1  A    between atoms: C3'_2  and  C2'_3 
REMARK    2  A    between atoms: C2'_3  and  C1'_4 
REMARK    3  A    between atoms: C1'_4  and  C1_5 
ROOT
ATOM      1  C1  N4B d   1       0.272   1.788  -1.110  0.00  0.00    -0.075 A 
ATOM      2  C2  N4B d   1      -0.994   2.137  -1.629  0.00  0.00     0.002 A 
ATOM      3  C3  N4B d   1      -1.413   1.610  -2.826  0.00  0.00     0.002 A 
ATOM      4  C4  N4B d   1      -0.579   0.751  -3.527  0.00  0.00    -0.004 A 
ATOM      5  C5  N4B d   1       0.631   0.400  -3.006  0.00  0.00     0.002 A 
ATOM      6  C6  N4B d   1       1.064   0.919  -1.802  0.00  0.00     0.002 A 
ENDROOT
BRANCH   1   7
ATOM      7  C1' N4B d   1       0.810   2.406   0.153  0.00  0.00     0.057 C 
BRANCH   7   8
ATOM      8  C2' N4B d   1       0.511   3.902   0.145  0.00  0.00     0.009 C 
BRANCH   8   9
ATOM      9  C3' N4B d   1       1.543   4.684  -0.650  0.00  0.00     0.004 C 
ATOM     10  C4' N4B d   1       0.956   5.871  -1.353  0.00  0.00     0.003 C 
ENDBRANCH   8   9
ENDBRANCH   7   8
ENDBRANCH   1   7
TORSDOF 3
ENDMDL
