MODEL 1
REMARK minimizedAffinity 7.13893986
REMARK minimizedRMSD -1
REMARK  3 active torsions:
REMARK  status: ('A' for Active; 'I' for Inactive)
REMARK    1  A    between atoms: C3'_2  and  C2'_3 
REMARK    2  A    between atoms: C2'_3  and  C1'_4 
REMARK    3  A    between atoms: C1'_4  and  C1_5 
ROOT
ATOM      1  C1  N4B d   1      -5.050   3.205  -4.342  0.00  0.00    -0.075 A 
ATOM      2  C2  N4B d   1      -3.909   4.001  -4.101  0.00  0.00     0.002 A 
ATOM      3  C3  N4B d   1      -3.758   5.199  -4.755  0.00  0.00     0.002 A 
ATOM      4  C4  N4B d   1      -4.721   5.611  -5.664  0.00  0.00    -0.004 A 
ATOM      5  C5  N4B d   1      -5.833   4.848  -5.872  0.00  0.00     0.002 A 
ATOM      6  C6  N4B d   1      -6.000   3.644  -5.218  0.00  0.00     0.002 A 
ENDROOT
BRANCH   1   7
ATOM      7  C1' N4B d   1      -5.218   1.847  -3.715  0.00  0.00     0.057 C 
BRANCH   7   8
ATOM      8  C2' N4B d   1      -3.932   1.470  -2.986  0.00  0.00     0.009 C 
BRANCH   8   9
ATOM      9  C3' N4B d   1      -3.995   0.065  -2.412  0.00  0.00     0.004 C 
ATOM     10  C4' N4B d   1      -2.969  -0.852  -3.008  0.00  0.00     0.003 C 
ENDBRANCH   8   9
ENDBRANCH   7   8
ENDBRANCH   1   7
TORSDOF 3
ENDMDL
