MODEL 1
REMARK minimizedAffinity 6.24173069
REMARK minimizedRMSD -1
REMARK  3 active torsions:
REMARK  status: ('A' for Active; 'I' for Inactive)
REMARK    1  A    between atoms: C3'_2  and  C2'_3 
REMARK    2  A    between atoms: C2'_3  and  C1'_4 
REMARK    3  A    between atoms: C1'_4  and  C1_5 
ROOT
ATOM      1  C1  N4B d   1       4.195  -1.541  -0.076  0.00  0.00    -0.075 A 
ATOM      2  C2  N4B d   1       3.380  -0.907  -1.038  0.00  0.00     0.002 A 
ATOM      3  C3  N4B d   1       2.141  -0.431  -0.683  0.00  0.00     0.002 A 
ATOM      4  C4  N4B d   1       1.691  -0.595   0.619  0.00  0.00    -0.004 A 
ATOM      5  C5  N4B d   1       2.496  -1.187   1.548  0.00  0.00     0.002 A 
ATOM      6  C6  N4B d   1       3.744  -1.665   1.206  0.00  0.00     0.002 A 
ENDROOT
BRANCH   1   7
ATOM      7  C1' N4B d   1       5.521  -2.153  -0.438  0.00  0.00     0.057 C 
BRANCH   7   8
ATOM      8  C2' N4B d   1       5.344  -3.657  -0.627  0.00  0.00     0.009 C 
BRANCH   8   9
ATOM      9  C3' N4B d   1       4.837  -3.999  -2.017  0.00  0.00     0.004 C 
ATOM     10  C4' N4B d   1       5.344  -3.057  -3.068  0.00  0.00     0.003 C 
ENDBRANCH   8   9
ENDBRANCH   7   8
ENDBRANCH   1   7
TORSDOF 3
ENDMDL
