MODEL 1
REMARK minimizedAffinity 7.9835062
REMARK minimizedRMSD -1
REMARK  3 active torsions:
REMARK  status: ('A' for Active; 'I' for Inactive)
REMARK    1  A    between atoms: C3'_2  and  C2'_3 
REMARK    2  A    between atoms: C2'_3  and  C1'_4 
REMARK    3  A    between atoms: C1'_4  and  C1_5 
ROOT
ATOM      1  C1  N4B d   1       0.449   1.071  -0.337  0.00  0.00    -0.075 A 
ATOM      2  C2  N4B d   1       1.351   0.427  -1.214  0.00  0.00     0.002 A 
ATOM      3  C3  N4B d   1       1.997  -0.717  -0.815  0.00  0.00     0.002 A 
ATOM      4  C4  N4B d   1       1.774  -1.223   0.457  0.00  0.00    -0.004 A 
ATOM      5  C5  N4B d   1       0.882  -0.610   1.288  0.00  0.00     0.002 A 
ATOM      6  C6  N4B d   1       0.222   0.539   0.899  0.00  0.00     0.002 A 
ENDROOT
BRANCH   1   7
ATOM      7  C1' N4B d   1      -0.216   2.371  -0.697  0.00  0.00     0.057 C 
BRANCH   7   8
ATOM      8  C2' N4B d   1       0.429   3.501   0.100  0.00  0.00     0.009 C 
BRANCH   8   9
ATOM      9  C3' N4B d   1       1.243   4.429  -0.786  0.00  0.00     0.004 C 
ATOM     10  C4' N4B d   1       0.467   5.631  -1.234  0.00  0.00     0.003 C 
ENDBRANCH   8   9
ENDBRANCH   7   8
ENDBRANCH   1   7
TORSDOF 3
ENDMDL
