MODEL 1
REMARK minimizedAffinity 6.18107605
REMARK minimizedRMSD -1
REMARK  0 active torsions:
REMARK  status: ('A' for Active; 'I' for Inactive)
ROOT
ATOM      1  C   UNL d   1      -5.779  -1.688  -3.718  0.00  0.00     0.077 C 
ATOM      2  C1  UNL d   1      -5.849  -0.241  -4.108  0.00  0.00    -0.074 A 
ATOM      3  C2  UNL d   1      -5.894   0.139  -5.453  0.00  0.00    -0.005 A 
ATOM      4  C3  UNL d   1      -5.969   1.488  -5.800  0.00  0.00     0.006 A 
ATOM      5  C4  UNL d   1      -6.000   2.468  -4.808  0.00  0.00    -0.005 A 
ATOM      6  C5  UNL d   1      -5.957   2.107  -3.457  0.00  0.00    -0.074 A 
ATOM      7  C6  UNL d   1      -6.000   3.147  -2.378  0.00  0.00     0.077 C 
ATOM      8  C7  UNL d   1      -5.889   0.749  -3.116  0.00  0.00    -0.001 A 
ENDROOT
TORSDOF 0
ENDMDL
