MODEL 1
REMARK minimizedAffinity 2.34745073
REMARK minimizedRMSD -1
REMARK  0 active torsions:
REMARK  status: ('A' for Active; 'I' for Inactive)
ROOT
ATOM      1  C   UNL d   1      -6.000   1.149   0.835  0.00  0.00     0.077 C 
ATOM      2  C1  UNL d   1      -5.627   2.383   0.068  0.00  0.00    -0.074 A 
ATOM      3  C2  UNL d   1      -5.987   2.530  -1.276  0.00  0.00    -0.005 A 
ATOM      4  C3  UNL d   1      -5.641   3.687  -1.973  0.00  0.00     0.006 A 
ATOM      5  C4  UNL d   1      -4.933   4.707  -1.336  0.00  0.00    -0.005 A 
ATOM      6  C5  UNL d   1      -4.565   4.578   0.007  0.00  0.00    -0.074 A 
ATOM      7  C6  UNL d   1      -3.813   5.668   0.710  0.00  0.00     0.077 C 
ATOM      8  C7  UNL d   1      -4.922   3.415   0.703  0.00  0.00    -0.001 A 
ENDROOT
TORSDOF 0
ENDMDL
