MODEL 1
REMARK minimizedAffinity 5.30512094
REMARK minimizedRMSD -1
REMARK  0 active torsions:
REMARK  status: ('A' for Active; 'I' for Inactive)
ROOT
ATOM      1  C   UNL d   1       1.494   3.582  -2.559  0.00  0.00     0.077 C 
ATOM      2  C1  UNL d   1       0.981   4.318  -3.761  0.00  0.00    -0.074 A 
ATOM      3  C2  UNL d   1       1.792   4.518  -4.882  0.00  0.00    -0.005 A 
ATOM      4  C3  UNL d   1       1.297   5.196  -5.996  0.00  0.00     0.006 A 
ATOM      5  C4  UNL d   1      -0.011   5.681  -6.000  0.00  0.00    -0.005 A 
ATOM      6  C5  UNL d   1      -0.838   5.489  -4.888  0.00  0.00    -0.074 A 
ATOM      7  C6  UNL d   1      -2.250   5.995  -4.879  0.00  0.00     0.077 C 
ATOM      8  C7  UNL d   1      -0.335   4.801  -3.775  0.00  0.00    -0.001 A 
ENDROOT
TORSDOF 0
ENDMDL
