MODEL 1
REMARK minimizedAffinity 3.1168201
REMARK minimizedRMSD -1
REMARK  0 active torsions:
REMARK  status: ('A' for Active; 'I' for Inactive)
ROOT
ATOM      1  C   UNL d   1      -1.691   5.825  -5.999  0.00  0.00     0.077 C 
ATOM      2  C1  UNL d   1      -0.545   5.254  -5.217  0.00  0.00    -0.074 A 
ATOM      3  C2  UNL d   1       0.727   5.831  -5.280  0.00  0.00    -0.005 A 
ATOM      4  C3  UNL d   1       1.780   5.295  -4.540  0.00  0.00     0.006 A 
ATOM      5  C4  UNL d   1       1.573   4.177  -3.731  0.00  0.00    -0.005 A 
ATOM      6  C5  UNL d   1       0.307   3.586  -3.655  0.00  0.00    -0.074 A 
ATOM      7  C6  UNL d   1       0.065   2.391  -2.782  0.00  0.00     0.077 C 
ATOM      8  C7  UNL d   1      -0.748   4.136  -4.396  0.00  0.00    -0.001 A 
ENDROOT
TORSDOF 0
ENDMDL
