MODEL 1
REMARK minimizedAffinity 6.05685759
REMARK minimizedRMSD -1
REMARK  0 active torsions:
REMARK  status: ('A' for Active; 'I' for Inactive)
ROOT
ATOM      1  C   UNL d   1      -5.709   2.989  -2.378  0.00  0.00     0.077 C 
ATOM      2  C1  UNL d   1      -5.817   1.869  -3.369  0.00  0.00    -0.074 A 
ATOM      3  C2  UNL d   1      -5.860   2.126  -4.743  0.00  0.00    -0.005 A 
ATOM      4  C3  UNL d   1      -5.951   1.074  -5.654  0.00  0.00     0.006 A 
ATOM      5  C4  UNL d   1      -6.000  -0.245  -5.200  0.00  0.00    -0.005 A 
ATOM      6  C5  UNL d   1      -5.958  -0.522  -3.830  0.00  0.00    -0.074 A 
ATOM      7  C6  UNL d   1      -5.999  -1.935  -3.327  0.00  0.00     0.077 C 
ATOM      8  C7  UNL d   1      -5.859   0.540  -2.922  0.00  0.00    -0.001 A 
ENDROOT
TORSDOF 0
ENDMDL
