MODEL 1
REMARK minimizedAffinity 8.84171963
REMARK minimizedRMSD -1
REMARK  0 active torsions:
REMARK  status: ('A' for Active; 'I' for Inactive)
ROOT
ATOM      1  C   UNL d   1       1.104   2.953   1.206  0.00  0.00     0.077 C 
ATOM      2  C1  UNL d   1       1.723   1.705   0.651  0.00  0.00    -0.074 A 
ATOM      3  C2  UNL d   1       1.684   1.431  -0.720  0.00  0.00    -0.005 A 
ATOM      4  C3  UNL d   1       2.273   0.271  -1.222  0.00  0.00     0.006 A 
ATOM      5  C4  UNL d   1       2.905  -0.627  -0.360  0.00  0.00    -0.005 A 
ATOM      6  C5  UNL d   1       2.954  -0.369   1.013  0.00  0.00    -0.074 A 
ATOM      7  C6  UNL d   1       3.638  -1.318   1.952  0.00  0.00     0.077 C 
ATOM      8  C7  UNL d   1       2.367   0.802   1.510  0.00  0.00    -0.001 A 
ENDROOT
TORSDOF 0
ENDMDL
