MODEL 1
REMARK minimizedAffinity 4.60063457
REMARK minimizedRMSD -1
REMARK  0 active torsions:
REMARK  status: ('A' for Active; 'I' for Inactive)
ROOT
ATOM      1  C   UNL d   1      -1.620  -0.377   4.410  0.00  0.00     0.077 C 
ATOM      2  C1  UNL d   1      -2.605  -0.576   3.296  0.00  0.00    -0.074 A 
ATOM      3  C2  UNL d   1      -2.362  -1.504   2.279  0.00  0.00    -0.005 A 
ATOM      4  C3  UNL d   1      -3.291  -1.685   1.255  0.00  0.00     0.006 A 
ATOM      5  C4  UNL d   1      -4.471  -0.940   1.238  0.00  0.00    -0.005 A 
ATOM      6  C5  UNL d   1      -4.732  -0.008   2.247  0.00  0.00    -0.074 A 
ATOM      7  C6  UNL d   1      -6.000   0.793   2.249  0.00  0.00     0.077 C 
ATOM      8  C7  UNL d   1      -3.796   0.163   3.277  0.00  0.00    -0.001 A 
ENDROOT
TORSDOF 0
ENDMDL
