MODEL 1
REMARK minimizedAffinity 2.98397803
REMARK minimizedRMSD -1
REMARK  0 active torsions:
REMARK  status: ('A' for Active; 'I' for Inactive)
ROOT
ATOM      1  C   UNL d   1      -5.955   1.326  -6.000  0.00  0.00     0.077 C 
ATOM      2  C1  UNL d   1      -5.964   1.467  -4.507  0.00  0.00    -0.074 A 
ATOM      3  C2  UNL d   1      -5.981   2.730  -3.905  0.00  0.00    -0.005 A 
ATOM      4  C3  UNL d   1      -5.999   2.846  -2.515  0.00  0.00     0.006 A 
ATOM      5  C4  UNL d   1      -5.999   1.703  -1.714  0.00  0.00    -0.005 A 
ATOM      6  C5  UNL d   1      -5.983   0.432  -2.299  0.00  0.00    -0.074 A 
ATOM      7  C6  UNL d   1      -5.993  -0.806  -1.453  0.00  0.00     0.077 C 
ATOM      8  C7  UNL d   1      -5.973   0.324  -3.696  0.00  0.00    -0.001 A 
ENDROOT
TORSDOF 0
ENDMDL
