MODEL 1
REMARK minimizedAffinity 1.26179075
REMARK minimizedRMSD -1
REMARK  0 active torsions:
REMARK  status: ('A' for Active; 'I' for Inactive)
ROOT
ATOM      1  C   UNL d   1      -6.000   2.440   1.635  0.00  0.00     0.077 C 
ATOM      2  C1  UNL d   1      -5.635   2.978   0.283  0.00  0.00    -0.074 A 
ATOM      3  C2  UNL d   1      -4.948   4.189   0.153  0.00  0.00    -0.005 A 
ATOM      4  C3  UNL d   1      -4.606   4.672  -1.110  0.00  0.00     0.006 A 
ATOM      5  C4  UNL d   1      -4.948   3.950  -2.254  0.00  0.00    -0.005 A 
ATOM      6  C5  UNL d   1      -5.634   2.736  -2.144  0.00  0.00    -0.074 A 
ATOM      7  C6  UNL d   1      -6.000   1.943  -3.363  0.00  0.00     0.077 C 
ATOM      8  C7  UNL d   1      -5.967   2.254  -0.870  0.00  0.00    -0.001 A 
ENDROOT
TORSDOF 0
ENDMDL
