MODEL 1
REMARK minimizedAffinity 4.96174002
REMARK minimizedRMSD -1
REMARK  0 active torsions:
REMARK  status: ('A' for Active; 'I' for Inactive)
ROOT
ATOM      1  C   UNL d   1       1.880   3.125  -3.051  0.00  0.00     0.077 C 
ATOM      2  C1  UNL d   1       1.407   4.127  -4.061  0.00  0.00    -0.074 A 
ATOM      3  C2  UNL d   1       2.265   4.602  -5.059  0.00  0.00    -0.005 A 
ATOM      4  C3  UNL d   1       1.809   5.527  -5.998  0.00  0.00     0.006 A 
ATOM      5  C4  UNL d   1       0.492   5.986  -5.949  0.00  0.00    -0.005 A 
ATOM      6  C5  UNL d   1      -0.381   5.522  -4.959  0.00  0.00    -0.074 A 
ATOM      7  C6  UNL d   1      -1.802   5.998  -4.898  0.00  0.00     0.077 C 
ATOM      8  C7  UNL d   1       0.083   4.588  -4.024  0.00  0.00    -0.001 A 
ENDROOT
TORSDOF 0
ENDMDL
