MODEL 1
REMARK minimizedAffinity 2.90844774
REMARK minimizedRMSD -1
REMARK  0 active torsions:
REMARK  status: ('A' for Active; 'I' for Inactive)
ROOT
ATOM      1  C   UNL d   1       1.093   2.941  -2.369  0.00  0.00     0.077 C 
ATOM      2  C1  UNL d   1       0.779   3.884  -3.492  0.00  0.00    -0.074 A 
ATOM      3  C2  UNL d   1       1.800   4.476  -4.241  0.00  0.00    -0.005 A 
ATOM      4  C3  UNL d   1       1.492   5.344  -5.289  0.00  0.00     0.006 A 
ATOM      5  C4  UNL d   1       0.161   5.627  -5.598  0.00  0.00    -0.005 A 
ATOM      6  C5  UNL d   1      -0.874   5.044  -4.861  0.00  0.00    -0.074 A 
ATOM      7  C6  UNL d   1      -2.310   5.330  -5.186  0.00  0.00     0.077 C 
ATOM      8  C7  UNL d   1      -0.556   4.167  -3.814  0.00  0.00    -0.001 A 
ENDROOT
TORSDOF 0
ENDMDL
