MODEL 1
REMARK minimizedAffinity 1.53878272
REMARK minimizedRMSD -1
REMARK  0 active torsions:
REMARK  status: ('A' for Active; 'I' for Inactive)
ROOT
ATOM      1  C   UNL d   1       3.621  -0.952   0.003  0.00  0.00     0.077 C 
ATOM      2  C1  UNL d   1       2.902   0.364  -0.026  0.00  0.00    -0.074 A 
ATOM      3  C2  UNL d   1       2.961   1.239   1.064  0.00  0.00    -0.005 A 
ATOM      4  C3  UNL d   1       2.295   2.463   1.020  0.00  0.00     0.006 A 
ATOM      5  C4  UNL d   1       1.565   2.825  -0.113  0.00  0.00    -0.005 A 
ATOM      6  C5  UNL d   1       1.496   1.964  -1.213  0.00  0.00    -0.074 A 
ATOM      7  C6  UNL d   1       0.724   2.342  -2.442  0.00  0.00     0.077 C 
ATOM      8  C7  UNL d   1       2.173   0.738  -1.163  0.00  0.00    -0.001 A 
ENDROOT
TORSDOF 0
ENDMDL
