MODEL 1
REMARK minimizedAffinity -0.356032223
REMARK minimizedRMSD -1
REMARK  0 active torsions:
REMARK  status: ('A' for Active; 'I' for Inactive)
ROOT
ATOM      1  C   UNL d   1      -6.000  -2.379  -3.382  0.00  0.00     0.077 C 
ATOM      2  C1  UNL d   1      -5.988  -0.945  -3.823  0.00  0.00    -0.074 A 
ATOM      3  C2  UNL d   1      -5.987  -0.611  -5.181  0.00  0.00    -0.005 A 
ATOM      4  C3  UNL d   1      -5.986   0.727  -5.576  0.00  0.00     0.006 A 
ATOM      5  C4  UNL d   1      -5.987   1.742  -4.619  0.00  0.00    -0.005 A 
ATOM      6  C5  UNL d   1      -5.989   1.427  -3.257  0.00  0.00    -0.074 A 
ATOM      7  C6  UNL d   1      -6.000   2.506  -2.215  0.00  0.00     0.077 C 
ATOM      8  C7  UNL d   1      -5.997   0.081  -2.868  0.00  0.00    -0.001 A 
ENDROOT
TORSDOF 0
ENDMDL
