MODEL 1
REMARK minimizedAffinity 2.98763561
REMARK minimizedRMSD -1
REMARK  0 active torsions:
REMARK  status: ('A' for Active; 'I' for Inactive)
ROOT
ATOM      1  C   UNL d   1      -6.000   0.570   1.152  0.00  0.00     0.077 C 
ATOM      2  C1  UNL d   1      -4.825  -0.294   1.502  0.00  0.00    -0.074 A 
ATOM      3  C2  UNL d   1      -4.453  -1.368   0.687  0.00  0.00    -0.005 A 
ATOM      4  C3  UNL d   1      -3.352  -2.156   1.021  0.00  0.00     0.006 A 
ATOM      5  C4  UNL d   1      -2.613  -1.880   2.172  0.00  0.00    -0.005 A 
ATOM      6  C5  UNL d   1      -2.969  -0.811   2.999  0.00  0.00    -0.074 A 
ATOM      7  C6  UNL d   1      -2.180  -0.494   4.235  0.00  0.00     0.077 C 
ATOM      8  C7  UNL d   1      -4.073  -0.018   2.653  0.00  0.00    -0.001 A 
ENDROOT
TORSDOF 0
ENDMDL
