MODEL 1
REMARK minimizedAffinity 7.53834724
REMARK minimizedRMSD -1
REMARK  0 active torsions:
REMARK  status: ('A' for Active; 'I' for Inactive)
ROOT
ATOM      1  C   UNL d   1      -1.729  -5.357  -4.412  0.00  0.00     0.077 C 
ATOM      2  C1  UNL d   1      -3.171  -5.131  -4.756  0.00  0.00    -0.074 A 
ATOM      3  C2  UNL d   1      -3.838  -5.974  -5.650  0.00  0.00    -0.005 A 
ATOM      4  C3  UNL d   1      -5.182  -5.756  -5.953  0.00  0.00     0.006 A 
ATOM      5  C4  UNL d   1      -5.872  -4.695  -5.365  0.00  0.00    -0.005 A 
ATOM      6  C5  UNL d   1      -5.222  -3.842  -4.468  0.00  0.00    -0.074 A 
ATOM      7  C6  UNL d   1      -5.951  -2.703  -3.820  0.00  0.00     0.077 C 
ATOM      8  C7  UNL d   1      -3.873  -4.071  -4.163  0.00  0.00    -0.001 A 
ENDROOT
TORSDOF 0
ENDMDL
