MODEL 1
REMARK minimizedAffinity 1.54443347
REMARK minimizedRMSD -1
REMARK  0 active torsions:
REMARK  status: ('A' for Active; 'I' for Inactive)
ROOT
ATOM      1  C   UNL d   1      -1.728   5.999  -5.304  0.00  0.00     0.077 C 
ATOM      2  C1  UNL d   1      -0.388   5.378  -5.045  0.00  0.00    -0.074 A 
ATOM      3  C2  UNL d   1       0.632   5.442  -6.000  0.00  0.00    -0.005 A 
ATOM      4  C3  UNL d   1       1.876   4.868  -5.740  0.00  0.00     0.006 A 
ATOM      5  C4  UNL d   1       2.113   4.224  -4.525  0.00  0.00    -0.005 A 
ATOM      6  C5  UNL d   1       1.106   4.150  -3.558  0.00  0.00    -0.074 A 
ATOM      7  C6  UNL d   1       1.347   3.470  -2.243  0.00  0.00     0.077 C 
ATOM      8  C7  UNL d   1      -0.140   4.736  -3.823  0.00  0.00    -0.001 A 
ENDROOT
TORSDOF 0
ENDMDL
