MODEL 1
REMARK minimizedAffinity -2.21438432
REMARK minimizedRMSD -1
REMARK  0 active torsions:
REMARK  status: ('A' for Active; 'I' for Inactive)
ROOT
ATOM      1  C   UNL d   1      -5.035   0.007   1.783  0.00  0.00     0.077 C 
ATOM      2  C1  UNL d   1      -3.681  -0.577   2.053  0.00  0.00    -0.074 A 
ATOM      3  C2  UNL d   1      -2.773   0.072   2.896  0.00  0.00    -0.005 A 
ATOM      4  C3  UNL d   1      -1.520  -0.488   3.145  0.00  0.00     0.006 A 
ATOM      5  C4  UNL d   1      -1.163  -1.701   2.556  0.00  0.00    -0.005 A 
ATOM      6  C5  UNL d   1      -2.058  -2.366   1.711  0.00  0.00    -0.074 A 
ATOM      7  C6  UNL d   1      -1.694  -3.675   1.077  0.00  0.00     0.077 C 
ATOM      8  C7  UNL d   1      -3.318  -1.800   1.471  0.00  0.00    -0.001 A 
ENDROOT
TORSDOF 0
ENDMDL
