MODEL 1
REMARK minimizedAffinity 8.06480789
REMARK minimizedRMSD -1
REMARK  0 active torsions:
REMARK  status: ('A' for Active; 'I' for Inactive)
ROOT
ATOM      1  C   UNL d   1      -1.068   4.769  -6.000  0.00  0.00     0.077 C 
ATOM      2  C1  UNL d   1       0.014   4.637  -4.970  0.00  0.00    -0.074 A 
ATOM      3  C2  UNL d   1       0.747   5.752  -4.551  0.00  0.00    -0.005 A 
ATOM      4  C3  UNL d   1       1.745   5.616  -3.585  0.00  0.00     0.006 A 
ATOM      5  C4  UNL d   1       2.018   4.366  -3.030  0.00  0.00    -0.005 A 
ATOM      6  C5  UNL d   1       1.295   3.240  -3.436  0.00  0.00    -0.074 A 
ATOM      7  C6  UNL d   1       1.570   1.890  -2.842  0.00  0.00     0.077 C 
ATOM      8  C7  UNL d   1       0.290   3.386  -4.401  0.00  0.00    -0.001 A 
ENDROOT
TORSDOF 0
ENDMDL
