MODEL 1
REMARK minimizedAffinity -2.96622992
REMARK minimizedRMSD -1
REMARK  0 active torsions:
REMARK  status: ('A' for Active; 'I' for Inactive)
ROOT
ATOM      1  C   UNL d   1       1.028   1.783  -1.081  0.00  0.00     0.172 C 
ATOM      2  N   UNL d   1       0.312   0.839  -0.256  0.00  0.00    -0.070 N 
ATOM      3  C1  UNL d   1       0.266  -0.516  -0.448  0.00  0.00    -0.004 A 
ATOM      4  C2  UNL d   1      -0.517  -1.057   0.548  0.00  0.00    -0.047 A 
ATOM      5  C3  UNL d   1      -0.958   0.009   1.367  0.00  0.00    -0.047 A 
ATOM      6  C4  UNL d   1      -0.430   1.172   0.847  0.00  0.00    -0.004 A 
ENDROOT
TORSDOF 0
ENDMDL
