MODEL 1
REMARK minimizedAffinity -3.65454316
REMARK minimizedRMSD -1
REMARK  0 active torsions:
REMARK  status: ('A' for Active; 'I' for Inactive)
ROOT
ATOM      1  C   UNL d   1      -0.546  -0.048  -0.402  0.00  0.00     0.172 C 
ATOM      2  N   UNL d   1       0.337   1.064  -0.141  0.00  0.00    -0.070 N 
ATOM      3  C1  UNL d   1       1.698   0.989  -0.006  0.00  0.00    -0.004 A 
ATOM      4  C2  UNL d   1       2.169   2.261   0.234  0.00  0.00    -0.047 A 
ATOM      5  C3  UNL d   1       1.053   3.132   0.244  0.00  0.00    -0.047 A 
ATOM      6  C4  UNL d   1      -0.068   2.364   0.009  0.00  0.00    -0.004 A 
ENDROOT
TORSDOF 0
ENDMDL
