MODEL 1
REMARK minimizedAffinity -2.95192528
REMARK minimizedRMSD -1
REMARK  0 active torsions:
REMARK  status: ('A' for Active; 'I' for Inactive)
ROOT
ATOM      1  C   UNL d   1       0.231  -1.167   0.189  0.00  0.00     0.172 C 
ATOM      2  N   UNL d   1       0.287   0.272   0.291  0.00  0.00    -0.070 N 
ATOM      3  C1  UNL d   1      -0.794   1.111   0.340  0.00  0.00    -0.004 A 
ATOM      4  C2  UNL d   1      -0.322   2.402   0.436  0.00  0.00    -0.047 A 
ATOM      5  C3  UNL d   1       1.092   2.337   0.443  0.00  0.00    -0.047 A 
ATOM      6  C4  UNL d   1       1.442   1.006   0.352  0.00  0.00    -0.004 A 
ENDROOT
TORSDOF 0
ENDMDL
