MODEL 1
REMARK minimizedAffinity -3.39316583
REMARK minimizedRMSD -1
REMARK  0 active torsions:
REMARK  status: ('A' for Active; 'I' for Inactive)
ROOT
ATOM      1  C   UNL d   1       0.127  -1.109  -0.362  0.00  0.00     0.172 C 
ATOM      2  N   UNL d   1       0.103   0.302  -0.056  0.00  0.00    -0.070 N 
ATOM      3  C1  UNL d   1       1.149   1.172  -0.217  0.00  0.00    -0.004 A 
ATOM      4  C2  UNL d   1       0.725   2.420   0.185  0.00  0.00    -0.047 A 
ATOM      5  C3  UNL d   1      -0.621   2.296   0.603  0.00  0.00    -0.047 A 
ATOM      6  C4  UNL d   1      -0.981   0.975   0.443  0.00  0.00    -0.004 A 
ENDROOT
TORSDOF 0
ENDMDL
