MODEL 1
REMARK minimizedAffinity -1.93594062
REMARK minimizedRMSD -1
REMARK  0 active torsions:
REMARK  status: ('A' for Active; 'I' for Inactive)
ROOT
ATOM      1  C   UNL d   1       0.366   2.945   0.553  0.00  0.00     0.172 C 
ATOM      2  N   UNL d   1       0.110   1.531   0.409  0.00  0.00    -0.070 N 
ATOM      3  C1  UNL d   1      -1.069   0.899   0.703  0.00  0.00    -0.004 A 
ATOM      4  C2  UNL d   1      -0.909  -0.442   0.429  0.00  0.00    -0.047 A 
ATOM      5  C3  UNL d   1       0.412  -0.623  -0.045  0.00  0.00    -0.047 A 
ATOM      6  C4  UNL d   1       1.020   0.615  -0.048  0.00  0.00    -0.004 A 
ENDROOT
TORSDOF 0
ENDMDL
