MODEL 1
REMARK minimizedAffinity -3.59368443
REMARK minimizedRMSD -1
REMARK  0 active torsions:
REMARK  status: ('A' for Active; 'I' for Inactive)
ROOT
ATOM      1  C   UNL d   1      -0.443  -0.732  -0.017  0.00  0.00     0.172 C 
ATOM      2  N   UNL d   1      -0.258   0.700   0.002  0.00  0.00    -0.070 N 
ATOM      3  C1  UNL d   1      -0.731   1.554   0.962  0.00  0.00    -0.004 A 
ATOM      4  C2  UNL d   1      -0.343   2.832   0.619  0.00  0.00    -0.047 A 
ATOM      5  C3  UNL d   1       0.388   2.742  -0.590  0.00  0.00    -0.047 A 
ATOM      6  C4  UNL d   1       0.425   1.411  -0.949  0.00  0.00    -0.004 A 
ENDROOT
TORSDOF 0
ENDMDL
