MODEL 1
REMARK minimizedAffinity -2.77444196
REMARK minimizedRMSD -1
REMARK  0 active torsions:
REMARK  status: ('A' for Active; 'I' for Inactive)
ROOT
ATOM      1  C   UNL d   1      -0.361   2.853   1.494  0.00  0.00     0.172 C 
ATOM      2  N   UNL d   1      -0.232   1.559   0.867  0.00  0.00    -0.070 N 
ATOM      3  C1  UNL d   1       0.721   1.207  -0.051  0.00  0.00    -0.004 A 
ATOM      4  C2  UNL d   1       0.504  -0.107  -0.404  0.00  0.00    -0.047 A 
ATOM      5  C3  UNL d   1      -0.620  -0.561   0.327  0.00  0.00    -0.047 A 
ATOM      6  C4  UNL d   1      -1.056   0.490   1.106  0.00  0.00    -0.004 A 
ENDROOT
TORSDOF 0
ENDMDL
