MODEL 1
REMARK minimizedAffinity -2.78066349
REMARK minimizedRMSD -1
REMARK  0 active torsions:
REMARK  status: ('A' for Active; 'I' for Inactive)
ROOT
ATOM      1  C   UNL d   1      -0.100  -1.835  -0.177  0.00  0.00     0.172 C 
ATOM      2  N   UNL d   1      -0.011  -0.404  -0.009  0.00  0.00    -0.070 N 
ATOM      3  C1  UNL d   1       0.996   0.394  -0.481  0.00  0.00    -0.004 A 
ATOM      4  C2  UNL d   1       0.713   1.693  -0.115  0.00  0.00    -0.047 A 
ATOM      5  C3  UNL d   1      -0.507   1.674   0.603  0.00  0.00    -0.047 A 
ATOM      6  C4  UNL d   1      -0.933   0.363   0.653  0.00  0.00    -0.004 A 
ENDROOT
TORSDOF 0
ENDMDL
