MODEL 1
REMARK minimizedAffinity -0.225794286
REMARK minimizedRMSD -1
REMARK  0 active torsions:
REMARK  status: ('A' for Active; 'I' for Inactive)
ROOT
ATOM      1  C   UNL d   1       2.033   0.038   0.542  0.00  0.00     0.172 C 
ATOM      2  N   UNL d   1       0.822   0.812   0.688  0.00  0.00    -0.070 N 
ATOM      3  C1  UNL d   1       0.756   2.174   0.817  0.00  0.00    -0.004 A 
ATOM      4  C2  UNL d   1      -0.572   2.523   0.932  0.00  0.00    -0.047 A 
ATOM      5  C3  UNL d   1      -1.330   1.330   0.871  0.00  0.00    -0.047 A 
ATOM      6  C4  UNL d   1      -0.442   0.286   0.720  0.00  0.00    -0.004 A 
ENDROOT
TORSDOF 0
ENDMDL
