MODEL 1
REMARK minimizedAffinity -2.29149365
REMARK minimizedRMSD -1
REMARK  0 active torsions:
REMARK  status: ('A' for Active; 'I' for Inactive)
ROOT
ATOM      1  C   UNL d   1       0.004   3.315   0.415  0.00  0.00     0.172 C 
ATOM      2  N   UNL d   1       0.136   1.891   0.214  0.00  0.00    -0.070 N 
ATOM      3  C1  UNL d   1      -0.890   1.024  -0.052  0.00  0.00    -0.004 A 
ATOM      4  C2  UNL d   1      -0.353  -0.239  -0.175  0.00  0.00    -0.047 A 
ATOM      5  C3  UNL d   1       1.044  -0.127   0.024  0.00  0.00    -0.047 A 
ATOM      6  C4  UNL d   1       1.319   1.202   0.264  0.00  0.00    -0.004 A 
ENDROOT
TORSDOF 0
ENDMDL
