MODEL 1
REMARK minimizedAffinity -3.29359365
REMARK minimizedRMSD -1
REMARK  0 active torsions:
REMARK  status: ('A' for Active; 'I' for Inactive)
ROOT
ATOM      1  C   UNL d   1       0.360  -0.434  -1.287  0.00  0.00     0.172 C 
ATOM      2  N   UNL d   1       0.113   0.785  -0.554  0.00  0.00    -0.070 N 
ATOM      3  C1  UNL d   1      -0.297   0.863   0.750  0.00  0.00    -0.004 A 
ATOM      4  C2  UNL d   1      -0.417   2.197   1.075  0.00  0.00    -0.047 A 
ATOM      5  C3  UNL d   1      -0.067   2.946  -0.073  0.00  0.00    -0.047 A 
ATOM      6  C4  UNL d   1       0.257   2.047  -1.067  0.00  0.00    -0.004 A 
ENDROOT
TORSDOF 0
ENDMDL
