MODEL 1
REMARK minimizedAffinity -3.83316541
REMARK minimizedRMSD -1
REMARK  0 active torsions:
REMARK  status: ('A' for Active; 'I' for Inactive)
ROOT
ATOM      1  C   UNL d   1       0.012  -0.720   0.257  0.00  0.00     0.172 C 
ATOM      2  N   UNL d   1       0.148   0.716   0.182  0.00  0.00    -0.070 N 
ATOM      3  C1  UNL d   1       1.288   1.394  -0.156  0.00  0.00    -0.004 A 
ATOM      4  C2  UNL d   1       1.007   2.742  -0.111  0.00  0.00    -0.047 A 
ATOM      5  C3  UNL d   1      -0.350   2.880   0.267  0.00  0.00    -0.047 A 
ATOM      6  C4  UNL d   1      -0.858   1.610   0.442  0.00  0.00    -0.004 A 
ENDROOT
TORSDOF 0
ENDMDL
