MODEL 1
REMARK minimizedAffinity 0.448887765
REMARK minimizedRMSD -1
REMARK  0 active torsions:
REMARK  status: ('A' for Active; 'I' for Inactive)
ROOT
ATOM      1  C   UNL d   1      -0.356  -1.094   0.224  0.00  0.00     0.172 C 
ATOM      2  N   UNL d   1       0.706  -0.221  -0.218  0.00  0.00    -0.070 N 
ATOM      3  C1  UNL d   1       2.028  -0.340   0.116  0.00  0.00    -0.004 A 
ATOM      4  C2  UNL d   1       2.714   0.681  -0.505  0.00  0.00    -0.047 A 
ATOM      5  C3  UNL d   1       1.771   1.440  -1.238  0.00  0.00    -0.047 A 
ATOM      6  C4  UNL d   1       0.536   0.860  -1.042  0.00  0.00    -0.004 A 
ENDROOT
TORSDOF 0
ENDMDL
