MODEL 1
REMARK minimizedAffinity -3.48401833
REMARK minimizedRMSD -1
REMARK  0 active torsions:
REMARK  status: ('A' for Active; 'I' for Inactive)
ROOT
ATOM      1  C   UNL d   1      -0.063  -0.789   0.014  0.00  0.00     0.172 C 
ATOM      2  N   UNL d   1      -0.030   0.654  -0.015  0.00  0.00    -0.070 N 
ATOM      3  C1  UNL d   1      -0.780   1.486   0.773  0.00  0.00    -0.004 A 
ATOM      4  C2  UNL d   1      -0.458   2.784   0.443  0.00  0.00    -0.047 A 
ATOM      5  C3  UNL d   1       0.519   2.731  -0.580  0.00  0.00    -0.047 A 
ATOM      6  C4  UNL d   1       0.765   1.400  -0.844  0.00  0.00    -0.004 A 
ENDROOT
TORSDOF 0
ENDMDL
