MODEL 1
REMARK minimizedAffinity -1.6178602
REMARK minimizedRMSD -1
REMARK  0 active torsions:
REMARK  status: ('A' for Active; 'I' for Inactive)
ROOT
ATOM      1  C   UNL d   1      -0.045  -0.974   0.046  0.00  0.00     0.172 C 
ATOM      2  N   UNL d   1      -0.261  -2.132  -0.789  0.00  0.00    -0.070 N 
ATOM      3  C1  UNL d   1      -1.061  -3.201  -0.482  0.00  0.00    -0.004 A 
ATOM      4  C2  UNL d   1      -0.999  -4.090  -1.533  0.00  0.00    -0.047 A 
ATOM      5  C3  UNL d   1      -0.131  -3.538  -2.505  0.00  0.00    -0.047 A 
ATOM      6  C4  UNL d   1       0.311  -2.326  -2.019  0.00  0.00    -0.004 A 
ENDROOT
TORSDOF 0
ENDMDL
