MODEL 1
REMARK minimizedAffinity -2.63532901
REMARK minimizedRMSD -1
REMARK  0 active torsions:
REMARK  status: ('A' for Active; 'I' for Inactive)
ROOT
ATOM      1  C   UNL d   1      -0.111   1.744   2.345  0.00  0.00     0.077 C 
ATOM      2  C1  UNL d   1      -0.484   0.845   1.203  0.00  0.00    -0.074 A 
ATOM      3  C2  UNL d   1      -1.745   0.244   1.144  0.00  0.00    -0.005 A 
ATOM      4  C3  UNL d   1      -2.081  -0.582   0.072  0.00  0.00     0.006 A 
ATOM      5  C4  UNL d   1      -1.161  -0.815  -0.951  0.00  0.00    -0.005 A 
ATOM      6  C5  UNL d   1       0.105  -0.222  -0.909  0.00  0.00    -0.074 A 
ATOM      7  C6  UNL d   1       1.102  -0.455  -2.005  0.00  0.00     0.077 C 
ATOM      8  C7  UNL d   1       0.433   0.612   0.168  0.00  0.00    -0.001 A 
ENDROOT
TORSDOF 0
ENDMDL
