MODEL 1
REMARK minimizedAffinity -5.20420647
REMARK minimizedRMSD -1
REMARK  0 active torsions:
REMARK  status: ('A' for Active; 'I' for Inactive)
ROOT
ATOM      1  C   UNL d   1       1.168   0.756   3.584  0.00  0.00     0.077 C 
ATOM      2  C1  UNL d   1       0.256   0.624   2.401  0.00  0.00    -0.074 A 
ATOM      3  C2  UNL d   1      -1.132   0.701   2.552  0.00  0.00    -0.005 A 
ATOM      4  C3  UNL d   1      -1.967   0.586   1.441  0.00  0.00     0.006 A 
ATOM      5  C4  UNL d   1      -1.424   0.393   0.170  0.00  0.00    -0.005 A 
ATOM      6  C5  UNL d   1      -0.038   0.314  -0.000  0.00  0.00    -0.074 A 
ATOM      7  C6  UNL d   1       0.563   0.118  -1.360  0.00  0.00     0.077 C 
ATOM      8  C7  UNL d   1       0.795   0.438   1.120  0.00  0.00    -0.001 A 
ENDROOT
TORSDOF 0
ENDMDL
