MODEL 1
REMARK minimizedAffinity -4.20724583
REMARK minimizedRMSD -1
REMARK  0 active torsions:
REMARK  status: ('A' for Active; 'I' for Inactive)
ROOT
ATOM      1  C   UNL d   1       1.487   0.190  -1.406  0.00  0.00     0.077 C 
ATOM      2  C1  UNL d   1       0.348   0.293  -0.436  0.00  0.00    -0.074 A 
ATOM      3  C2  UNL d   1      -0.918  -0.207  -0.757  0.00  0.00    -0.005 A 
ATOM      4  C3  UNL d   1      -1.965  -0.112   0.160  0.00  0.00     0.006 A 
ATOM      5  C4  UNL d   1      -1.757   0.484   1.405  0.00  0.00    -0.005 A 
ATOM      6  C5  UNL d   1      -0.498   0.989   1.743  0.00  0.00    -0.074 A 
ATOM      7  C6  UNL d   1      -0.255   1.624   3.081  0.00  0.00     0.077 C 
ATOM      8  C7  UNL d   1       0.551   0.884   0.820  0.00  0.00    -0.001 A 
ENDROOT
TORSDOF 0
ENDMDL
