MODEL 1
REMARK minimizedAffinity -2.80239344
REMARK minimizedRMSD -1
REMARK  0 active torsions:
REMARK  status: ('A' for Active; 'I' for Inactive)
ROOT
ATOM      1  C   UNL d   1      -0.050   1.769   2.649  0.00  0.00     0.077 C 
ATOM      2  C1  UNL d   1      -0.248   0.897   1.445  0.00  0.00    -0.074 A 
ATOM      3  C2  UNL d   1      -1.519   0.717   0.888  0.00  0.00    -0.005 A 
ATOM      4  C3  UNL d   1      -1.686  -0.089  -0.238  0.00  0.00     0.006 A 
ATOM      5  C4  UNL d   1      -0.586  -0.722  -0.818  0.00  0.00    -0.005 A 
ATOM      6  C5  UNL d   1       0.692  -0.553  -0.276  0.00  0.00    -0.074 A 
ATOM      7  C6  UNL d   1       1.886  -1.218  -0.894  0.00  0.00     0.077 C 
ATOM      8  C7  UNL d   1       0.853   0.264   0.851  0.00  0.00    -0.001 A 
ENDROOT
TORSDOF 0
ENDMDL
