MODEL 1
REMARK minimizedAffinity -5.1412816
REMARK minimizedRMSD -1
REMARK  0 active torsions:
REMARK  status: ('A' for Active; 'I' for Inactive)
ROOT
ATOM      1  C   UNL d   1      -3.053  -0.802   2.641  0.00  0.00     0.077 C 
ATOM      2  C1  UNL d   1      -1.906  -0.117   1.960  0.00  0.00    -0.074 A 
ATOM      3  C2  UNL d   1      -1.094   0.786   2.654  0.00  0.00    -0.005 A 
ATOM      4  C3  UNL d   1      -0.025   1.409   2.009  0.00  0.00     0.006 A 
ATOM      5  C4  UNL d   1       0.242   1.136   0.667  0.00  0.00    -0.005 A 
ATOM      6  C5  UNL d   1      -0.558   0.235  -0.042  0.00  0.00    -0.074 A 
ATOM      7  C6  UNL d   1      -0.279  -0.077  -1.482  0.00  0.00     0.077 C 
ATOM      8  C7  UNL d   1      -1.626  -0.392   0.614  0.00  0.00    -0.001 A 
ENDROOT
TORSDOF 0
ENDMDL
