MODEL 1
REMARK minimizedAffinity -3.87942433
REMARK minimizedRMSD -1
REMARK  0 active torsions:
REMARK  status: ('A' for Active; 'I' for Inactive)
ROOT
ATOM      1  C   UNL d   1       1.088  -0.836  -1.756  0.00  0.00     0.077 C 
ATOM      2  C1  UNL d   1       0.032  -0.507  -0.743  0.00  0.00    -0.074 A 
ATOM      3  C2  UNL d   1      -1.228  -1.113  -0.796  0.00  0.00    -0.005 A 
ATOM      4  C3  UNL d   1      -2.197  -0.805   0.158  0.00  0.00     0.006 A 
ATOM      5  C4  UNL d   1      -1.918   0.111   1.173  0.00  0.00    -0.005 A 
ATOM      6  C5  UNL d   1      -0.664   0.726   1.243  0.00  0.00    -0.074 A 
ATOM      7  C6  UNL d   1      -0.344   1.705   2.333  0.00  0.00     0.077 C 
ATOM      8  C7  UNL d   1       0.307   0.406   0.284  0.00  0.00    -0.001 A 
ENDROOT
TORSDOF 0
ENDMDL
