MODEL 1
REMARK minimizedAffinity -2.43200445
REMARK minimizedRMSD -1
REMARK  0 active torsions:
REMARK  status: ('A' for Active; 'I' for Inactive)
ROOT
ATOM      1  C   UNL d   1       1.076   1.097  -3.111  0.00  0.00     0.077 C 
ATOM      2  C1  UNL d   1       1.144   0.355  -1.810  0.00  0.00    -0.074 A 
ATOM      3  C2  UNL d   1       1.935  -0.791  -1.677  0.00  0.00    -0.005 A 
ATOM      4  C3  UNL d   1       1.996  -1.466  -0.458  0.00  0.00     0.006 A 
ATOM      5  C4  UNL d   1       1.268  -1.003   0.639  0.00  0.00    -0.005 A 
ATOM      6  C5  UNL d   1       0.472   0.142   0.525  0.00  0.00    -0.074 A 
ATOM      7  C6  UNL d   1      -0.309   0.659   1.696  0.00  0.00     0.077 C 
ATOM      8  C7  UNL d   1       0.422   0.818  -0.702  0.00  0.00    -0.001 A 
ENDROOT
TORSDOF 0
ENDMDL
