MODEL 1
REMARK minimizedAffinity -3.03875756
REMARK minimizedRMSD -1
REMARK  0 active torsions:
REMARK  status: ('A' for Active; 'I' for Inactive)
ROOT
ATOM      1  C   UNL d   1      -5.947  -3.220  -4.652  0.00  0.00     0.023 A 
ATOM      2  C1  UNL d   1      -4.811  -3.030  -3.866  0.00  0.00     0.003 A 
ATOM      3  C2  UNL d   1      -3.641  -3.740  -4.144  0.00  0.00     0.048 A 
ATOM      4  C3  UNL d   1      -3.615  -4.638  -5.210  0.00  0.00     0.023 A 
ATOM      5  C4  UNL d   1      -4.749  -4.831  -6.000  0.00  0.00     0.048 A 
ATOM      6  C5  UNL d   1      -5.917  -4.119  -5.718  0.00  0.00     0.003 A 
ATOM      7  I   UNL d   1      -1.875  -5.697  -5.626  0.00  0.00    -0.146 I 
ENDROOT
TORSDOF 0
ENDMDL
