MODEL 1
REMARK minimizedAffinity -3.45206785
REMARK minimizedRMSD -1
REMARK  0 active torsions:
REMARK  status: ('A' for Active; 'I' for Inactive)
ROOT
ATOM      1  C   UNL d   1      -5.859  -2.390  -4.721  0.00  0.00     0.023 A 
ATOM      2  C1  UNL d   1      -6.000  -3.562  -3.978  0.00  0.00     0.003 A 
ATOM      3  C2  UNL d   1      -5.077  -4.599  -4.126  0.00  0.00     0.048 A 
ATOM      4  C3  UNL d   1      -4.015  -4.458  -5.018  0.00  0.00     0.023 A 
ATOM      5  C4  UNL d   1      -3.870  -3.286  -5.764  0.00  0.00     0.048 A 
ATOM      6  C5  UNL d   1      -4.796  -2.253  -5.613  0.00  0.00     0.003 A 
ATOM      7  I   UNL d   1      -2.639  -6.000  -5.240  0.00  0.00    -0.146 I 
ENDROOT
TORSDOF 0
ENDMDL
