MODEL 1
REMARK minimizedAffinity -3.52139378
REMARK minimizedRMSD -1
REMARK  0 active torsions:
REMARK  status: ('A' for Active; 'I' for Inactive)
ROOT
ATOM      1  C   UNL d   1      -5.329  -3.190  -3.750  0.00  0.00     0.023 A 
ATOM      2  C1  UNL d   1      -5.647  -4.437  -4.289  0.00  0.00     0.003 A 
ATOM      3  C2  UNL d   1      -4.642  -5.244  -4.825  0.00  0.00     0.048 A 
ATOM      4  C3  UNL d   1      -3.320  -4.800  -4.817  0.00  0.00     0.023 A 
ATOM      5  C4  UNL d   1      -2.997  -3.553  -4.278  0.00  0.00     0.048 A 
ATOM      6  C5  UNL d   1      -4.006  -2.749  -3.745  0.00  0.00     0.003 A 
ATOM      7  I   UNL d   1      -1.822  -6.000  -5.613  0.00  0.00    -0.146 I 
ENDROOT
TORSDOF 0
ENDMDL
