MODEL 1
REMARK minimizedAffinity -3.23167753
REMARK minimizedRMSD -1
REMARK  0 active torsions:
REMARK  status: ('A' for Active; 'I' for Inactive)
ROOT
ATOM      1  C   UNL d   1      -5.922  -2.737  -4.274  0.00  0.00     0.023 A 
ATOM      2  C1  UNL d   1      -5.616  -2.913  -5.624  0.00  0.00     0.003 A 
ATOM      3  C2  UNL d   1      -4.545  -3.726  -5.998  0.00  0.00     0.048 A 
ATOM      4  C3  UNL d   1      -3.784  -4.361  -5.018  0.00  0.00     0.023 A 
ATOM      5  C4  UNL d   1      -4.086  -4.189  -3.666  0.00  0.00     0.048 A 
ATOM      6  C5  UNL d   1      -5.158  -3.375  -3.297  0.00  0.00     0.003 A 
ATOM      7  I   UNL d   1      -2.188  -5.573  -5.573  0.00  0.00    -0.146 I 
ENDROOT
TORSDOF 0
ENDMDL
