MODEL 1
REMARK minimizedAffinity -3.95408154
REMARK minimizedRMSD -1
REMARK  0 active torsions:
REMARK  status: ('A' for Active; 'I' for Inactive)
ROOT
ATOM      1  C   UNL d   1      -5.391  -2.694  -4.617  0.00  0.00     0.023 A 
ATOM      2  C1  UNL d   1      -4.547  -2.484  -5.707  0.00  0.00     0.003 A 
ATOM      3  C2  UNL d   1      -3.479  -3.352  -5.943  0.00  0.00     0.048 A 
ATOM      4  C3  UNL d   1      -3.261  -4.429  -5.084  0.00  0.00     0.023 A 
ATOM      5  C4  UNL d   1      -4.103  -4.643  -3.992  0.00  0.00     0.048 A 
ATOM      6  C5  UNL d   1      -5.169  -3.772  -3.760  0.00  0.00     0.003 A 
ATOM      7  I   UNL d   1      -1.672  -5.723  -5.432  0.00  0.00    -0.146 I 
ENDROOT
TORSDOF 0
ENDMDL
