MODEL 1
REMARK minimizedAffinity -3.67473364
REMARK minimizedRMSD -1
REMARK  0 active torsions:
REMARK  status: ('A' for Active; 'I' for Inactive)
ROOT
ATOM      1  C   UNL d   1      -5.986  -4.086  -3.519  0.00  0.00     0.023 A 
ATOM      2  C1  UNL d   1      -5.732  -5.354  -4.041  0.00  0.00     0.003 A 
ATOM      3  C2  UNL d   1      -4.554  -5.595  -4.751  0.00  0.00     0.048 A 
ATOM      4  C3  UNL d   1      -3.634  -4.563  -4.935  0.00  0.00     0.023 A 
ATOM      5  C4  UNL d   1      -3.885  -3.292  -4.414  0.00  0.00     0.048 A 
ATOM      6  C5  UNL d   1      -5.064  -3.056  -3.706  0.00  0.00     0.003 A 
ATOM      7  I   UNL d   1      -1.880  -4.918  -5.992  0.00  0.00    -0.146 I 
ENDROOT
TORSDOF 0
ENDMDL
