MODEL 1
REMARK minimizedAffinity -3.43157983
REMARK minimizedRMSD -1
REMARK  0 active torsions:
REMARK  status: ('A' for Active; 'I' for Inactive)
ROOT
ATOM      1  C   UNL d   1      -3.010  -5.476  -5.125  0.00  0.00     0.023 A 
ATOM      2  C1  UNL d   1      -4.278  -5.606  -4.558  0.00  0.00     0.003 A 
ATOM      3  C2  UNL d   1      -5.135  -4.506  -4.502  0.00  0.00     0.048 A 
ATOM      4  C3  UNL d   1      -4.719  -3.278  -5.015  0.00  0.00     0.023 A 
ATOM      5  C4  UNL d   1      -3.452  -3.143  -5.584  0.00  0.00     0.048 A 
ATOM      6  C5  UNL d   1      -2.597  -4.246  -5.637  0.00  0.00     0.003 A 
ATOM      7  I   UNL d   1      -5.994  -1.639  -4.932  0.00  0.00    -0.146 I 
ENDROOT
TORSDOF 0
ENDMDL
