MODEL 1
REMARK minimizedAffinity -0.704764783
REMARK minimizedRMSD -1
REMARK  0 active torsions:
REMARK  status: ('A' for Active; 'I' for Inactive)
ROOT
ATOM      1  C   UNL d   1      -1.924  -4.144  -6.000  0.00  0.00     0.023 A 
ATOM      2  C1  UNL d   1      -2.506  -5.349  -5.606  0.00  0.00     0.003 A 
ATOM      3  C2  UNL d   1      -3.675  -5.345  -4.843  0.00  0.00     0.048 A 
ATOM      4  C3  UNL d   1      -4.259  -4.132  -4.479  0.00  0.00     0.023 A 
ATOM      5  C4  UNL d   1      -3.681  -2.924  -4.872  0.00  0.00     0.048 A 
ATOM      6  C5  UNL d   1      -2.512  -2.933  -5.633  0.00  0.00     0.003 A 
ATOM      7  I   UNL d   1      -6.000  -4.124  -3.343  0.00  0.00    -0.146 I 
ENDROOT
TORSDOF 0
ENDMDL
