MODEL 1
REMARK minimizedAffinity -3.70855117
REMARK minimizedRMSD -1
REMARK  0 active torsions:
REMARK  status: ('A' for Active; 'I' for Inactive)
ROOT
ATOM      1  C   UNL d   1      -5.949  -3.520  -4.318  0.00  0.00     0.023 A 
ATOM      2  C1  UNL d   1      -4.728  -2.847  -4.266  0.00  0.00     0.003 A 
ATOM      3  C2  UNL d   1      -3.552  -3.501  -4.636  0.00  0.00     0.048 A 
ATOM      4  C3  UNL d   1      -3.603  -4.829  -5.059  0.00  0.00     0.023 A 
ATOM      5  C4  UNL d   1      -4.822  -5.507  -5.113  0.00  0.00     0.048 A 
ATOM      6  C5  UNL d   1      -5.995  -4.849  -4.741  0.00  0.00     0.003 A 
ATOM      7  I   UNL d   1      -1.853  -5.805  -5.611  0.00  0.00    -0.146 I 
ENDROOT
TORSDOF 0
ENDMDL
