MODEL 1
REMARK minimizedAffinity -2.91726637
REMARK minimizedRMSD -1
REMARK  0 active torsions:
REMARK  status: ('A' for Active; 'I' for Inactive)
ROOT
ATOM      1  C   UNL d   1      -2.504  -5.626  -5.863  0.00  0.00     0.023 A 
ATOM      2  C1  UNL d   1      -3.841  -6.000  -5.999  0.00  0.00     0.003 A 
ATOM      3  C2  UNL d   1      -4.843  -5.249  -5.381  0.00  0.00     0.048 A 
ATOM      4  C3  UNL d   1      -4.502  -4.125  -4.630  0.00  0.00     0.023 A 
ATOM      5  C4  UNL d   1      -3.166  -3.746  -4.492  0.00  0.00     0.048 A 
ATOM      6  C5  UNL d   1      -2.167  -4.500  -5.111  0.00  0.00     0.003 A 
ATOM      7  I   UNL d   1      -5.992  -3.006  -3.710  0.00  0.00    -0.146 I 
ENDROOT
TORSDOF 0
ENDMDL
