MODEL 1
REMARK minimizedAffinity -2.49535108
REMARK minimizedRMSD -1
REMARK  0 active torsions:
REMARK  status: ('A' for Active; 'I' for Inactive)
ROOT
ATOM      1  C   UNL d   1      -3.706  -5.999  -5.626  0.00  0.00     0.023 A 
ATOM      2  C1  UNL d   1      -5.060  -5.822  -5.913  0.00  0.00     0.003 A 
ATOM      3  C2  UNL d   1      -5.720  -4.667  -5.487  0.00  0.00     0.048 A 
ATOM      4  C3  UNL d   1      -5.020  -3.694  -4.775  0.00  0.00     0.023 A 
ATOM      5  C4  UNL d   1      -3.665  -3.867  -4.487  0.00  0.00     0.048 A 
ATOM      6  C5  UNL d   1      -3.010  -5.023  -4.914  0.00  0.00     0.003 A 
ATOM      7  I   UNL d   1      -5.999  -1.975  -4.140  0.00  0.00    -0.146 I 
ENDROOT
TORSDOF 0
ENDMDL
