MODEL 1
REMARK minimizedAffinity -3.02858186
REMARK minimizedRMSD -1
REMARK  0 active torsions:
REMARK  status: ('A' for Active; 'I' for Inactive)
ROOT
ATOM      1  C   UNL d   1      -5.989  -3.500  -4.307  0.00  0.00     0.023 A 
ATOM      2  C1  UNL d   1      -5.998  -4.190  -5.520  0.00  0.00     0.003 A 
ATOM      3  C2  UNL d   1      -4.825  -4.776  -6.000  0.00  0.00     0.048 A 
ATOM      4  C3  UNL d   1      -3.647  -4.669  -5.262  0.00  0.00     0.023 A 
ATOM      5  C4  UNL d   1      -3.633  -3.980  -4.048  0.00  0.00     0.048 A 
ATOM      6  C5  UNL d   1      -4.808  -3.395  -3.573  0.00  0.00     0.003 A 
ATOM      7  I   UNL d   1      -1.900  -5.540  -5.975  0.00  0.00    -0.146 I 
ENDROOT
TORSDOF 0
ENDMDL
