MODEL 1
REMARK minimizedAffinity -3.40590382
REMARK minimizedRMSD -1
REMARK  0 active torsions:
REMARK  status: ('A' for Active; 'I' for Inactive)
ROOT
ATOM      1  C   UNL d   1      -3.099  -5.799  -5.720  0.00  0.00     0.023 A 
ATOM      2  C1  UNL d   1      -2.630  -4.505  -5.947  0.00  0.00     0.003 A 
ATOM      3  C2  UNL d   1      -3.461  -3.408  -5.710  0.00  0.00     0.048 A 
ATOM      4  C3  UNL d   1      -4.760  -3.613  -5.246  0.00  0.00     0.023 A 
ATOM      5  C4  UNL d   1      -5.233  -4.906  -5.017  0.00  0.00     0.048 A 
ATOM      6  C5  UNL d   1      -4.399  -6.000  -5.256  0.00  0.00     0.003 A 
ATOM      7  I   UNL d   1      -6.000  -1.983  -4.893  0.00  0.00    -0.146 I 
ENDROOT
TORSDOF 0
ENDMDL
