MODEL 1
REMARK minimizedAffinity -3.22165155
REMARK minimizedRMSD -1
REMARK  0 active torsions:
REMARK  status: ('A' for Active; 'I' for Inactive)
ROOT
ATOM      1  C   UNL d   1      -2.239  -3.232  -6.000  0.00  0.00     0.023 A 
ATOM      2  C1  UNL d   1      -3.447  -2.545  -5.882  0.00  0.00     0.003 A 
ATOM      3  C2  UNL d   1      -4.528  -3.137  -5.224  0.00  0.00     0.048 A 
ATOM      4  C3  UNL d   1      -4.392  -4.417  -4.687  0.00  0.00     0.023 A 
ATOM      5  C4  UNL d   1      -3.185  -5.108  -4.801  0.00  0.00     0.048 A 
ATOM      6  C5  UNL d   1      -2.108  -4.512  -5.460  0.00  0.00     0.003 A 
ATOM      7  I   UNL d   1      -5.999  -5.300  -3.707  0.00  0.00    -0.146 I 
ENDROOT
TORSDOF 0
ENDMDL
