MODEL 1
REMARK minimizedAffinity -2.33615541
REMARK minimizedRMSD -1
REMARK  0 active torsions:
REMARK  status: ('A' for Active; 'I' for Inactive)
ROOT
ATOM      1  C   UNL d   1      -5.999  -2.616  -4.348  0.00  0.00     0.023 A 
ATOM      2  C1  UNL d   1      -5.339  -3.345  -3.359  0.00  0.00     0.003 A 
ATOM      3  C2  UNL d   1      -4.140  -3.997  -3.654  0.00  0.00     0.048 A 
ATOM      4  C3  UNL d   1      -3.606  -3.914  -4.939  0.00  0.00     0.023 A 
ATOM      5  C4  UNL d   1      -4.262  -3.184  -5.932  0.00  0.00     0.048 A 
ATOM      6  C5  UNL d   1      -5.461  -2.535  -5.633  0.00  0.00     0.003 A 
ATOM      7  I   UNL d   1      -1.821  -4.883  -5.380  0.00  0.00    -0.146 I 
ENDROOT
TORSDOF 0
ENDMDL
