MODEL 1
REMARK minimizedAffinity -2.82103777
REMARK minimizedRMSD -1
REMARK  0 active torsions:
REMARK  status: ('A' for Active; 'I' for Inactive)
ROOT
ATOM      1  C   UNL d   1      -2.970  -5.771  -5.641  0.00  0.00     0.023 A 
ATOM      2  C1  UNL d   1      -2.466  -4.476  -5.519  0.00  0.00     0.003 A 
ATOM      3  C2  UNL d   1      -3.334  -3.405  -5.298  0.00  0.00     0.048 A 
ATOM      4  C3  UNL d   1      -4.706  -3.636  -5.198  0.00  0.00     0.023 A 
ATOM      5  C4  UNL d   1      -5.215  -4.930  -5.318  0.00  0.00     0.048 A 
ATOM      6  C5  UNL d   1      -4.343  -5.997  -5.541  0.00  0.00     0.003 A 
ATOM      7  I   UNL d   1      -6.000  -2.043  -4.869  0.00  0.00    -0.146 I 
ENDROOT
TORSDOF 0
ENDMDL
