MODEL 1
REMARK minimizedAffinity -3.91696239
REMARK minimizedRMSD -1
REMARK  0 active torsions:
REMARK  status: ('A' for Active; 'I' for Inactive)
ROOT
ATOM      1  C   UNL d   1      -5.862  -2.984  -4.149  0.00  0.00     0.023 A 
ATOM      2  C1  UNL d   1      -5.673  -4.319  -3.789  0.00  0.00     0.003 A 
ATOM      3  C2  UNL d   1      -4.518  -4.994  -4.189  0.00  0.00     0.048 A 
ATOM      4  C3  UNL d   1      -3.556  -4.329  -4.948  0.00  0.00     0.023 A 
ATOM      5  C4  UNL d   1      -3.740  -2.994  -5.310  0.00  0.00     0.048 A 
ATOM      6  C5  UNL d   1      -4.897  -2.323  -4.909  0.00  0.00     0.003 A 
ATOM      7  I   UNL d   1      -1.836  -5.332  -5.544  0.00  0.00    -0.146 I 
ENDROOT
TORSDOF 0
ENDMDL
