MODEL 1
REMARK minimizedAffinity -2.79343891
REMARK minimizedRMSD -1
REMARK  0 active torsions:
REMARK  status: ('A' for Active; 'I' for Inactive)
ROOT
ATOM      1  C   UNL d   1      -6.000  -3.304  -4.347  0.00  0.00     0.023 A 
ATOM      2  C1  UNL d   1      -5.214  -2.618  -5.273  0.00  0.00     0.003 A 
ATOM      3  C2  UNL d   1      -4.032  -3.189  -5.748  0.00  0.00     0.048 A 
ATOM      4  C3  UNL d   1      -3.642  -4.448  -5.293  0.00  0.00     0.023 A 
ATOM      5  C4  UNL d   1      -4.425  -5.139  -4.367  0.00  0.00     0.048 A 
ATOM      6  C5  UNL d   1      -5.606  -4.563  -3.895  0.00  0.00     0.003 A 
ATOM      7  I   UNL d   1      -1.883  -5.301  -5.999  0.00  0.00    -0.146 I 
ENDROOT
TORSDOF 0
ENDMDL
