MODEL 1
REMARK minimizedAffinity -1.79632461
REMARK minimizedRMSD -1
REMARK  0 active torsions:
REMARK  status: ('A' for Active; 'I' for Inactive)
ROOT
ATOM      1  C   UNL d   1      -0.171  -3.068  -5.413  0.00  0.00     0.172 C 
ATOM      2  N   UNL d   1      -0.148  -1.640  -5.197  0.00  0.00    -0.070 N 
ATOM      3  C1  UNL d   1       0.502  -0.725  -5.982  0.00  0.00    -0.004 A 
ATOM      4  C2  UNL d   1       0.280   0.525  -5.444  0.00  0.00    -0.047 A 
ATOM      5  C3  UNL d   1      -0.529   0.354  -4.296  0.00  0.00    -0.047 A 
ATOM      6  C4  UNL d   1      -0.780  -0.995  -4.167  0.00  0.00    -0.004 A 
ENDROOT
TORSDOF 0
ENDMDL
