MODEL 1
REMARK minimizedAffinity -0.558103859
REMARK minimizedRMSD -1
REMARK  0 active torsions:
REMARK  status: ('A' for Active; 'I' for Inactive)
ROOT
ATOM      1  C   UNL d   1       0.197  -0.571   2.897  0.00  0.00     0.172 C 
ATOM      2  N   UNL d   1      -0.913  -0.251   2.031  0.00  0.00    -0.070 N 
ATOM      3  C1  UNL d   1      -0.975  -0.501   0.686  0.00  0.00    -0.004 A 
ATOM      4  C2  UNL d   1      -2.193  -0.049   0.228  0.00  0.00    -0.047 A 
ATOM      5  C3  UNL d   1      -2.888   0.492   1.335  0.00  0.00    -0.047 A 
ATOM      6  C4  UNL d   1      -2.073   0.354   2.439  0.00  0.00    -0.004 A 
ENDROOT
TORSDOF 0
ENDMDL
