MODEL 1
REMARK minimizedAffinity 4.05503654
REMARK minimizedRMSD -1
REMARK  0 active torsions:
REMARK  status: ('A' for Active; 'I' for Inactive)
ROOT
ATOM      1  C   UNL d   1       1.851  -1.449   2.639  0.00  0.00     0.172 C 
ATOM      2  N   UNL d   1       2.598  -1.295   3.865  0.00  0.00    -0.070 N 
ATOM      3  C1  UNL d   1       2.232  -1.786   5.090  0.00  0.00    -0.004 A 
ATOM      4  C2  UNL d   1       3.208  -1.429   5.996  0.00  0.00    -0.047 A 
ATOM      5  C3  UNL d   1       4.193  -0.698   5.291  0.00  0.00    -0.047 A 
ATOM      6  C4  UNL d   1       3.791  -0.630   3.974  0.00  0.00    -0.004 A 
ENDROOT
TORSDOF 0
ENDMDL
