MODEL 1
REMARK minimizedAffinity 2.9018271
REMARK minimizedRMSD -1
REMARK  0 active torsions:
REMARK  status: ('A' for Active; 'I' for Inactive)
ROOT
ATOM      1  C   UNL d   1       2.479  -1.548   4.416  0.00  0.00     0.172 C 
ATOM      2  N   UNL d   1       1.502  -1.476   3.355  0.00  0.00    -0.070 N 
ATOM      3  C1  UNL d   1       0.597  -2.452   3.036  0.00  0.00    -0.004 A 
ATOM      4  C2  UNL d   1      -0.153  -2.001   1.971  0.00  0.00    -0.047 A 
ATOM      5  C3  UNL d   1       0.319  -0.709   1.638  0.00  0.00    -0.047 A 
ATOM      6  C4  UNL d   1       1.343  -0.408   2.511  0.00  0.00    -0.004 A 
ENDROOT
TORSDOF 0
ENDMDL
