MODEL 1
REMARK minimizedAffinity 3.17290545
REMARK minimizedRMSD -1
REMARK  0 active torsions:
REMARK  status: ('A' for Active; 'I' for Inactive)
ROOT
ATOM      1  C   UNL d   1       1.693  -0.060  -5.651  0.00  0.00     0.172 C 
ATOM      2  N   UNL d   1       0.376  -0.537  -5.299  0.00  0.00    -0.070 N 
ATOM      3  C1  UNL d   1      -0.795   0.150  -5.474  0.00  0.00    -0.004 A 
ATOM      4  C2  UNL d   1      -1.824  -0.644  -5.014  0.00  0.00    -0.047 A 
ATOM      5  C3  UNL d   1      -1.250  -1.850  -4.545  0.00  0.00    -0.047 A 
ATOM      6  C4  UNL d   1       0.113  -1.757  -4.733  0.00  0.00    -0.004 A 
ENDROOT
TORSDOF 0
ENDMDL
