MODEL 1
REMARK minimizedAffinity 4.49155998
REMARK minimizedRMSD -1
REMARK  0 active torsions:
REMARK  status: ('A' for Active; 'I' for Inactive)
ROOT
ATOM      1  C   UNL d   1       2.517  -0.572  -5.137  0.00  0.00     0.172 C 
ATOM      2  N   UNL d   1       1.112  -0.905  -5.155  0.00  0.00    -0.070 N 
ATOM      3  C1  UNL d   1       0.511  -1.873  -4.396  0.00  0.00    -0.004 A 
ATOM      4  C2  UNL d   1      -0.832  -1.877  -4.703  0.00  0.00    -0.047 A 
ATOM      5  C3  UNL d   1      -1.046  -0.877  -5.681  0.00  0.00    -0.047 A 
ATOM      6  C4  UNL d   1       0.175  -0.290  -5.942  0.00  0.00    -0.004 A 
ENDROOT
TORSDOF 0
ENDMDL
