MODEL 1
REMARK minimizedAffinity -1.83084655
REMARK minimizedRMSD -1
REMARK  0 active torsions:
REMARK  status: ('A' for Active; 'I' for Inactive)
ROOT
ATOM      1  C   UNL d   1      -1.179   0.733   3.648  0.00  0.00     0.172 C 
ATOM      2  N   UNL d   1      -1.615   0.208   2.375  0.00  0.00    -0.070 N 
ATOM      3  C1  UNL d   1      -2.725   0.612   1.683  0.00  0.00    -0.004 A 
ATOM      4  C2  UNL d   1      -2.791  -0.128   0.522  0.00  0.00    -0.047 A 
ATOM      5  C3  UNL d   1      -1.682  -1.007   0.517  0.00  0.00    -0.047 A 
ATOM      6  C4  UNL d   1      -0.970  -0.778   1.675  0.00  0.00    -0.004 A 
ENDROOT
TORSDOF 0
ENDMDL
