MODEL 1
REMARK minimizedAffinity 1.4517827
REMARK minimizedRMSD -1
REMARK  0 active torsions:
REMARK  status: ('A' for Active; 'I' for Inactive)
ROOT
ATOM      1  O1  BZF d   1       2.029  -1.539   4.554  0.00  0.00    -0.204 OA
ATOM      2  C2  BZF d   1       1.924  -1.146   3.233  0.00  0.00     0.174 A 
ATOM      3  C3  BZF d   1       3.139  -1.096   2.651  0.00  0.00    -0.012 A 
ATOM      4  C3A BZF d   1       4.053  -1.571   3.644  0.00  0.00    -0.107 A 
ATOM      5  C4  BZF d   1       5.404  -1.769   3.659  0.00  0.00     0.055 A 
ATOM      6  C5  BZF d   1       5.999  -2.174   4.812  0.00  0.00    -0.016 A 
ATOM      7  C6  BZF d   1       5.276  -2.386   5.967  0.00  0.00     0.022 A 
ATOM      8  C7  BZF d   1       3.933  -2.207   6.000  0.00  0.00     0.029 A 
ATOM      9  C7A BZF d   1       3.324  -1.830   4.828  0.00  0.00     0.058 A 
ENDROOT
TORSDOF 0
ENDMDL
