MODEL 1
REMARK minimizedAffinity 7.94222689
REMARK minimizedRMSD -1
REMARK  0 active torsions:
REMARK  status: ('A' for Active; 'I' for Inactive)
ROOT
ATOM      1  O1  BZF d   1       1.823  -3.204   0.297  0.00  0.00    -0.204 OA
ATOM      2  C2  BZF d   1       1.355  -2.185  -0.510  0.00  0.00     0.174 A 
ATOM      3  C3  BZF d   1       1.075  -1.086   0.220  0.00  0.00    -0.012 A 
ATOM      4  C3A BZF d   1       1.475  -1.410   1.555  0.00  0.00    -0.107 A 
ATOM      5  C4  BZF d   1       1.462  -0.719   2.733  0.00  0.00     0.055 A 
ATOM      6  C5  BZF d   1       1.854  -1.348   3.872  0.00  0.00    -0.016 A 
ATOM      7  C6  BZF d   1       2.259  -2.667   3.871  0.00  0.00     0.022 A 
ATOM      8  C7  BZF d   1       2.293  -3.392   2.727  0.00  0.00     0.029 A 
ATOM      9  C7A BZF d   1       1.929  -2.749   1.569  0.00  0.00     0.058 A 
ENDROOT
TORSDOF 0
ENDMDL
