MODEL 1
REMARK minimizedAffinity 11.2137175
REMARK minimizedRMSD -1
REMARK  0 active torsions:
REMARK  status: ('A' for Active; 'I' for Inactive)
ROOT
ATOM      1  O1  BZF d   1       2.019  -1.650   4.720  0.00  0.00    -0.204 OA
ATOM      2  C2  BZF d   1       1.740  -1.488   3.377  0.00  0.00     0.174 A 
ATOM      3  C3  BZF d   1       2.868  -1.566   2.641  0.00  0.00    -0.012 A 
ATOM      4  C3A BZF d   1       3.904  -1.884   3.574  0.00  0.00    -0.107 A 
ATOM      5  C4  BZF d   1       5.246  -2.106   3.448  0.00  0.00     0.055 A 
ATOM      6  C5  BZF d   1       5.988  -2.321   4.566  0.00  0.00    -0.016 A 
ATOM      7  C6  BZF d   1       5.424  -2.314   5.824  0.00  0.00     0.022 A 
ATOM      8  C7  BZF d   1       4.096  -2.103   6.000  0.00  0.00     0.029 A 
ATOM      9  C7A BZF d   1       3.338  -1.919   4.870  0.00  0.00     0.058 A 
ENDROOT
TORSDOF 0
ENDMDL
