MODEL 1
REMARK minimizedAffinity 0.183956265
REMARK minimizedRMSD -1
REMARK  0 active torsions:
REMARK  status: ('A' for Active; 'I' for Inactive)
ROOT
ATOM      1  O1  BZF d   1       3.754   5.931  -5.188  0.00  0.00    -0.204 OA
ATOM      2  C2  BZF d   1       4.961   5.926  -5.859  0.00  0.00     0.174 A 
ATOM      3  C3  BZF d   1       5.992   5.992  -4.992  0.00  0.00    -0.012 A 
ATOM      4  C3A BZF d   1       5.393   5.946  -3.693  0.00  0.00    -0.107 A 
ATOM      5  C4  BZF d   1       5.900   5.960  -2.425  0.00  0.00     0.055 A 
ATOM      6  C5  BZF d   1       5.042   5.978  -1.371  0.00  0.00    -0.016 A 
ATOM      7  C6  BZF d   1       3.674   5.988  -1.549  0.00  0.00     0.022 A 
ATOM      8  C7  BZF d   1       3.124   5.970  -2.787  0.00  0.00     0.029 A 
ATOM      9  C7A BZF d   1       3.989   5.918  -3.854  0.00  0.00     0.058 A 
ENDROOT
TORSDOF 0
ENDMDL
