MODEL 1
REMARK minimizedAffinity 15.4470682
REMARK minimizedRMSD -1
REMARK  0 active torsions:
REMARK  status: ('A' for Active; 'I' for Inactive)
ROOT
ATOM      1  O1  BZF d   1       5.678  -1.788   4.274  0.00  0.00    -0.204 OA
ATOM      2  C2  BZF d   1       5.982  -2.502   5.417  0.00  0.00     0.174 A 
ATOM      3  C3  BZF d   1       4.861  -2.973   6.000  0.00  0.00    -0.012 A 
ATOM      4  C3A BZF d   1       3.795  -2.605   5.119  0.00  0.00    -0.107 A 
ATOM      5  C4  BZF d   1       2.445  -2.804   5.143  0.00  0.00     0.055 A 
ATOM      6  C5  BZF d   1       1.677  -2.252   4.167  0.00  0.00    -0.016 A 
ATOM      7  C6  BZF d   1       2.226  -1.492   3.155  0.00  0.00     0.022 A 
ATOM      8  C7  BZF d   1       3.561  -1.270   3.086  0.00  0.00     0.029 A 
ATOM      9  C7A BZF d   1       4.343  -1.854   4.052  0.00  0.00     0.058 A 
ENDROOT
TORSDOF 0
ENDMDL
