MODEL 1
REMARK minimizedAffinity 21.025671
REMARK minimizedRMSD -1
REMARK  0 active torsions:
REMARK  status: ('A' for Active; 'I' for Inactive)
ROOT
ATOM      1  O1  BZF d   1       1.296  -0.223   2.777  0.00  0.00    -0.204 OA
ATOM      2  C2  BZF d   1       2.503  -0.880   2.908  0.00  0.00     0.174 A 
ATOM      3  C3  BZF d   1       2.741  -1.662   1.835  0.00  0.00    -0.012 A 
ATOM      4  C3A BZF d   1       1.655  -1.411   0.938  0.00  0.00    -0.107 A 
ATOM      5  C4  BZF d   1       1.337  -1.878  -0.305  0.00  0.00     0.055 A 
ATOM      6  C5  BZF d   1       0.167  -1.490  -0.877  0.00  0.00    -0.016 A 
ATOM      7  C6  BZF d   1      -0.709  -0.640  -0.233  0.00  0.00     0.022 A 
ATOM      8  C7  BZF d   1      -0.434  -0.147   0.999  0.00  0.00     0.029 A 
ATOM      9  C7A BZF d   1       0.763  -0.511   1.565  0.00  0.00     0.058 A 
ENDROOT
TORSDOF 0
ENDMDL
