MODEL 1
REMARK minimizedAffinity 1.3743695
REMARK minimizedRMSD -1
REMARK  0 active torsions:
REMARK  status: ('A' for Active; 'I' for Inactive)
ROOT
ATOM      1  O1  BZF d   1       1.356  -0.653   3.792  0.00  0.00    -0.204 OA
ATOM      2  C2  BZF d   1       1.893  -0.197   2.603  0.00  0.00     0.174 A 
ATOM      3  C3  BZF d   1       2.513  -1.197   1.944  0.00  0.00    -0.012 A 
ATOM      4  C3A BZF d   1       2.275  -2.370   2.728  0.00  0.00    -0.107 A 
ATOM      5  C4  BZF d   1       2.624  -3.682   2.585  0.00  0.00     0.055 A 
ATOM      6  C5  BZF d   1       2.297  -4.564   3.566  0.00  0.00    -0.016 A 
ATOM      7  C6  BZF d   1       1.627  -4.167   4.705  0.00  0.00     0.022 A 
ATOM      8  C7  BZF d   1       1.255  -2.877   4.890  0.00  0.00     0.029 A 
ATOM      9  C7A BZF d   1       1.555  -1.990   3.885  0.00  0.00     0.058 A 
ENDROOT
TORSDOF 0
ENDMDL
