MODEL 1
REMARK minimizedAffinity 15.7631283
REMARK minimizedRMSD -1
REMARK  0 active torsions:
REMARK  status: ('A' for Active; 'I' for Inactive)
ROOT
ATOM      1  O1  BZF d   1       2.800   3.682  -0.584  0.00  0.00    -0.204 OA
ATOM      2  C2  BZF d   1       1.768   4.569  -0.826  0.00  0.00     0.174 A 
ATOM      3  C3  BZF d   1       0.666   4.221  -0.131  0.00  0.00    -0.012 A 
ATOM      4  C3A BZF d   1       1.060   3.098   0.663  0.00  0.00    -0.107 A 
ATOM      5  C4  BZF d   1       0.409   2.317   1.574  0.00  0.00     0.055 A 
ATOM      6  C5  BZF d   1       1.058   1.253   2.116  0.00  0.00    -0.016 A 
ATOM      7  C6  BZF d   1       2.354   0.938   1.766  0.00  0.00     0.022 A 
ATOM      8  C7  BZF d   1       3.043   1.685   0.870  0.00  0.00     0.029 A 
ATOM      9  C7A BZF d   1       2.401   2.781   0.345  0.00  0.00     0.058 A 
ENDROOT
TORSDOF 0
ENDMDL
