MODEL 1
REMARK minimizedAffinity -5.6015811
REMARK minimizedRMSD -1
REMARK  0 active torsions:
REMARK  status: ('A' for Active; 'I' for Inactive)
ROOT
ATOM      1  C   UNL d   1       0.545  -0.392  -0.393  0.00  0.00     0.078 C 
ATOM      2  C1  UNL d   1      -0.006   0.843   0.255  0.00  0.00    -0.077 A 
ATOM      3  C2  UNL d   1      -0.237   2.007  -0.489  0.00  0.00    -0.001 A 
ATOM      4  C3  UNL d   1      -0.741   3.152   0.129  0.00  0.00     0.003 A 
ATOM      5  C4  UNL d   1      -1.019   3.145   1.495  0.00  0.00    -0.005 A 
ATOM      6  C5  UNL d   1      -0.791   1.992   2.244  0.00  0.00     0.003 A 
ATOM      7  C6  UNL d   1      -0.286   0.846   1.627  0.00  0.00    -0.001 A 
ENDROOT
TORSDOF 0
ENDMDL
