MODEL 1
REMARK minimizedAffinity -4.08186579
REMARK minimizedRMSD -1
REMARK  0 active torsions:
REMARK  status: ('A' for Active; 'I' for Inactive)
ROOT
ATOM      1  C   UNL d   1      -1.882   2.260   0.384  0.00  0.00     0.078 C 
ATOM      2  C1  UNL d   1      -1.058   1.259  -0.369  0.00  0.00    -0.077 A 
ATOM      3  C2  UNL d   1      -0.703   1.476  -1.706  0.00  0.00    -0.001 A 
ATOM      4  C3  UNL d   1       0.057   0.532  -2.397  0.00  0.00     0.003 A 
ATOM      5  C4  UNL d   1       0.468  -0.638  -1.760  0.00  0.00    -0.005 A 
ATOM      6  C5  UNL d   1       0.118  -0.864  -0.431  0.00  0.00     0.003 A 
ATOM      7  C6  UNL d   1      -0.642   0.080   0.262  0.00  0.00    -0.001 A 
ENDROOT
TORSDOF 0
ENDMDL
