MODEL 1
REMARK minimizedAffinity -5.37429237
REMARK minimizedRMSD -1
REMARK  0 active torsions:
REMARK  status: ('A' for Active; 'I' for Inactive)
ROOT
ATOM      1  C   UNL d   1      -0.556   2.581  -2.220  0.00  0.00     0.078 C 
ATOM      2  C1  UNL d   1      -0.565   2.220  -0.765  0.00  0.00    -0.077 A 
ATOM      3  C2  UNL d   1      -0.210   0.934  -0.339  0.00  0.00    -0.001 A 
ATOM      4  C3  UNL d   1      -0.232   0.608   1.018  0.00  0.00     0.003 A 
ATOM      5  C4  UNL d   1      -0.610   1.563   1.961  0.00  0.00    -0.005 A 
ATOM      6  C5  UNL d   1      -0.966   2.844   1.546  0.00  0.00     0.003 A 
ATOM      7  C6  UNL d   1      -0.945   3.172   0.190  0.00  0.00    -0.001 A 
ENDROOT
TORSDOF 0
ENDMDL
