MODEL 1
REMARK minimizedAffinity -5.22673655
REMARK minimizedRMSD -1
REMARK  0 active torsions:
REMARK  status: ('A' for Active; 'I' for Inactive)
ROOT
ATOM      1  C   UNL d   1       0.268   0.028  -1.047  0.00  0.00     0.078 C 
ATOM      2  C1  UNL d   1      -0.324   1.263  -0.437  0.00  0.00    -0.077 A 
ATOM      3  C2  UNL d   1      -0.701   2.351  -1.234  0.00  0.00    -0.001 A 
ATOM      4  C3  UNL d   1      -1.242   3.499  -0.652  0.00  0.00     0.003 A 
ATOM      5  C4  UNL d   1      -1.409   3.570   0.729  0.00  0.00    -0.005 A 
ATOM      6  C5  UNL d   1      -1.035   2.494   1.531  0.00  0.00     0.003 A 
ATOM      7  C6  UNL d   1      -0.494   1.345   0.951  0.00  0.00    -0.001 A 
ENDROOT
TORSDOF 0
ENDMDL
