MODEL 1
REMARK minimizedAffinity -6.2144351
REMARK minimizedRMSD -1
REMARK  0 active torsions:
REMARK  status: ('A' for Active; 'I' for Inactive)
ROOT
ATOM      1  C   UNL d   1       0.685  -0.170  -0.822  0.00  0.00     0.078 C 
ATOM      2  C1  UNL d   1       0.001   1.020  -0.218  0.00  0.00    -0.077 A 
ATOM      3  C2  UNL d   1      -0.257   1.083   1.157  0.00  0.00    -0.001 A 
ATOM      4  C3  UNL d   1      -0.903   2.193   1.704  0.00  0.00     0.003 A 
ATOM      5  C4  UNL d   1      -1.297   3.248   0.883  0.00  0.00    -0.005 A 
ATOM      6  C5  UNL d   1      -1.047   3.193  -0.486  0.00  0.00     0.003 A 
ATOM      7  C6  UNL d   1      -0.401   2.084  -1.035  0.00  0.00    -0.001 A 
ENDROOT
TORSDOF 0
ENDMDL
