MODEL 1
REMARK minimizedAffinity -3.81558084
REMARK minimizedRMSD -1
REMARK  0 active torsions:
REMARK  status: ('A' for Active; 'I' for Inactive)
ROOT
ATOM      1  C   UNL d   1       0.434  -0.711  -0.678  0.00  0.00     0.078 C 
ATOM      2  C1  UNL d   1      -0.008   0.609  -0.121  0.00  0.00    -0.077 A 
ATOM      3  C2  UNL d   1      -0.413   1.649  -0.966  0.00  0.00    -0.001 A 
ATOM      4  C3  UNL d   1      -0.813   2.876  -0.433  0.00  0.00     0.003 A 
ATOM      5  C4  UNL d   1      -0.810   3.075   0.946  0.00  0.00    -0.005 A 
ATOM      6  C5  UNL d   1      -0.406   2.046   1.795  0.00  0.00     0.003 A 
ATOM      7  C6  UNL d   1      -0.006   0.819   1.264  0.00  0.00    -0.001 A 
ENDROOT
TORSDOF 0
ENDMDL
