MODEL 1
REMARK minimizedAffinity -3.47323489
REMARK minimizedRMSD -1
REMARK  0 active torsions:
REMARK  status: ('A' for Active; 'I' for Inactive)
ROOT
ATOM      1  C   UNL d   1       0.423  -0.775  -1.116  0.00  0.00     0.078 C 
ATOM      2  C1  UNL d   1      -0.017   0.223  -0.087  0.00  0.00    -0.077 A 
ATOM      3  C2  UNL d   1       0.766   0.487   1.043  0.00  0.00    -0.001 A 
ATOM      4  C3  UNL d   1       0.339   1.412   1.998  0.00  0.00     0.003 A 
ATOM      5  C4  UNL d   1      -0.873   2.079   1.832  0.00  0.00    -0.005 A 
ATOM      6  C5  UNL d   1      -1.660   1.821   0.711  0.00  0.00     0.003 A 
ATOM      7  C6  UNL d   1      -1.235   0.897  -0.244  0.00  0.00    -0.001 A 
ENDROOT
TORSDOF 0
ENDMDL
