MODEL 1
REMARK minimizedAffinity -4.24323559
REMARK minimizedRMSD -1
REMARK  0 active torsions:
REMARK  status: ('A' for Active; 'I' for Inactive)
ROOT
ATOM      1  C   UNL d   1      -1.830   2.034   1.406  0.00  0.00     0.078 C 
ATOM      2  C1  UNL d   1      -0.907   1.444   0.382  0.00  0.00    -0.077 A 
ATOM      3  C2  UNL d   1      -0.246   0.233   0.619  0.00  0.00    -0.001 A 
ATOM      4  C3  UNL d   1       0.618  -0.300  -0.339  0.00  0.00     0.003 A 
ATOM      5  C4  UNL d   1       0.830   0.373  -1.541  0.00  0.00    -0.005 A 
ATOM      6  C5  UNL d   1       0.179   1.580  -1.785  0.00  0.00     0.003 A 
ATOM      7  C6  UNL d   1      -0.686   2.114  -0.828  0.00  0.00    -0.001 A 
ENDROOT
TORSDOF 0
ENDMDL
