MODEL 1
REMARK minimizedAffinity 0.710610032
REMARK minimizedRMSD -1
REMARK  0 active torsions:
REMARK  status: ('A' for Active; 'I' for Inactive)
ROOT
ATOM      1  C   UNL d   1       0.098   1.933  -2.245  0.00  0.00     0.078 C 
ATOM      2  C1  UNL d   1       0.271   1.778  -0.763  0.00  0.00    -0.077 A 
ATOM      3  C2  UNL d   1       0.538   0.526  -0.196  0.00  0.00    -0.001 A 
ATOM      4  C3  UNL d   1       0.688   0.394   1.186  0.00  0.00     0.003 A 
ATOM      5  C4  UNL d   1       0.571   1.511   2.011  0.00  0.00    -0.005 A 
ATOM      6  C5  UNL d   1       0.304   2.760   1.456  0.00  0.00     0.003 A 
ATOM      7  C6  UNL d   1       0.154   2.894   0.075  0.00  0.00    -0.001 A 
ENDROOT
TORSDOF 0
ENDMDL
