MODEL 1
REMARK minimizedAffinity -4.23368406
REMARK minimizedRMSD -1
REMARK  0 active torsions:
REMARK  status: ('A' for Active; 'I' for Inactive)
ROOT
ATOM      1  C   UNL d   1       0.353  -0.786  -0.716  0.00  0.00     0.078 C 
ATOM      2  C1  UNL d   1      -0.115   0.395   0.082  0.00  0.00    -0.077 A 
ATOM      3  C2  UNL d   1      -1.048   1.296  -0.444  0.00  0.00    -0.001 A 
ATOM      4  C3  UNL d   1      -1.467   2.396   0.306  0.00  0.00     0.003 A 
ATOM      5  C4  UNL d   1      -0.958   2.606   1.586  0.00  0.00    -0.005 A 
ATOM      6  C5  UNL d   1      -0.027   1.715   2.117  0.00  0.00     0.003 A 
ATOM      7  C6  UNL d   1       0.394   0.615   1.368  0.00  0.00    -0.001 A 
ENDROOT
TORSDOF 0
ENDMDL
