MODEL 1
REMARK minimizedAffinity 4.89911318
REMARK minimizedRMSD -1
REMARK  0 active torsions:
REMARK  status: ('A' for Active; 'I' for Inactive)
ROOT
ATOM      1  C2' OXE d   1      -3.386   1.309   1.477  0.00  0.00     0.078 C 
ATOM      2  C1' OXE d   1      -5.288   0.070  -0.174  0.00  0.00     0.078 C 
ATOM      3  C1  OXE d   1      -3.870   0.165  -0.682  0.00  0.00    -0.078 A 
ATOM      4  C2  OXE d   1      -2.957   0.814   0.113  0.00  0.00    -0.078 A 
ATOM      5  C3  OXE d   1      -1.624   0.882  -0.283  0.00  0.00     0.003 A 
ATOM      6  C4  OXE d   1      -1.237   0.431  -1.550  0.00  0.00    -0.002 A 
ATOM      7  C5  OXE d   1      -2.161  -0.198  -2.392  0.00  0.00    -0.002 A 
ATOM      8  C6  OXE d   1      -3.469  -0.377  -1.956  0.00  0.00     0.003 A 
ENDROOT
TORSDOF 0
ENDMDL
