MODEL 1
REMARK minimizedAffinity 6.88195372
REMARK minimizedRMSD -1
REMARK  0 active torsions:
REMARK  status: ('A' for Active; 'I' for Inactive)
ROOT
ATOM      1  C2' OXE d   1       2.451   0.382  -1.119  0.00  0.00     0.078 C 
ATOM      2  C1' OXE d   1       4.631   0.747  -2.850  0.00  0.00     0.078 C 
ATOM      3  C1  OXE d   1       4.764   1.252  -1.435  0.00  0.00    -0.078 A 
ATOM      4  C2  OXE d   1       3.675   1.111  -0.609  0.00  0.00    -0.078 A 
ATOM      5  C3  OXE d   1       3.763   1.511   0.722  0.00  0.00     0.003 A 
ATOM      6  C4  OXE d   1       4.895   2.194   1.183  0.00  0.00    -0.002 A 
ATOM      7  C5  OXE d   1       6.000   2.384   0.346  0.00  0.00    -0.002 A 
ATOM      8  C6  OXE d   1       5.967   1.882  -0.950  0.00  0.00     0.003 A 
ENDROOT
TORSDOF 0
ENDMDL
