MODEL 1
REMARK minimizedAffinity 3.78481579
REMARK minimizedRMSD -1
REMARK  0 active torsions:
REMARK  status: ('A' for Active; 'I' for Inactive)
ROOT
ATOM      1  C2' OXE d   1       2.593  -3.310  -0.240  0.00  0.00     0.078 C 
ATOM      2  C1' OXE d   1       3.170  -2.967  -2.966  0.00  0.00     0.078 C 
ATOM      3  C1  OXE d   1       3.368  -1.784  -2.051  0.00  0.00    -0.078 A 
ATOM      4  C2  OXE d   1       3.038  -1.947  -0.727  0.00  0.00    -0.078 A 
ATOM      5  C3  OXE d   1       3.253  -0.905   0.170  0.00  0.00     0.003 A 
ATOM      6  C4  OXE d   1       3.655   0.354  -0.289  0.00  0.00    -0.002 A 
ATOM      7  C5  OXE d   1       3.958   0.553  -1.641  0.00  0.00    -0.002 A 
ATOM      8  C6  OXE d   1       3.861  -0.515  -2.525  0.00  0.00     0.003 A 
ENDROOT
TORSDOF 0
ENDMDL
