MODEL 1
REMARK minimizedAffinity 9.88297272
REMARK minimizedRMSD -1
REMARK  0 active torsions:
REMARK  status: ('A' for Active; 'I' for Inactive)
ROOT
ATOM      1  C2' OXE d   1       1.939   1.510   1.174  0.00  0.00     0.078 C 
ATOM      2  C1' OXE d   1       3.722   2.743   2.957  0.00  0.00     0.078 C 
ATOM      3  C1  OXE d   1       4.231   2.397   1.580  0.00  0.00    -0.078 A 
ATOM      4  C2  OXE d   1       3.365   1.752   0.730  0.00  0.00    -0.078 A 
ATOM      5  C3  OXE d   1       3.766   1.459  -0.571  0.00  0.00     0.003 A 
ATOM      6  C4  OXE d   1       5.090   1.677  -0.970  0.00  0.00    -0.002 A 
ATOM      7  C5  OXE d   1       5.999   2.297  -0.106  0.00  0.00    -0.002 A 
ATOM      8  C6  OXE d   1       5.575   2.701   1.155  0.00  0.00     0.003 A 
ENDROOT
TORSDOF 0
ENDMDL
