MODEL 1
REMARK minimizedAffinity 7.83789158
REMARK minimizedRMSD -1
REMARK  0 active torsions:
REMARK  status: ('A' for Active; 'I' for Inactive)
ROOT
ATOM      1  C2' OXE d   1      -1.938  -0.554  -2.305  0.00  0.00     0.078 C 
ATOM      2  C1' OXE d   1      -4.546  -0.360  -1.284  0.00  0.00     0.078 C 
ATOM      3  C1  OXE d   1      -4.334  -0.030  -2.740  0.00  0.00    -0.078 A 
ATOM      4  C2  OXE d   1      -3.047  -0.082  -3.220  0.00  0.00    -0.078 A 
ATOM      5  C3  OXE d   1      -2.804   0.160  -4.569  0.00  0.00     0.003 A 
ATOM      6  C4  OXE d   1      -3.834   0.605  -5.406  0.00  0.00    -0.002 A 
ATOM      7  C5  OXE d   1      -5.145   0.704  -4.928  0.00  0.00    -0.002 A 
ATOM      8  C6  OXE d   1      -5.419   0.350  -3.611  0.00  0.00     0.003 A 
ENDROOT
TORSDOF 0
ENDMDL
