MODEL 1
REMARK minimizedAffinity -1.18527699
REMARK minimizedRMSD -1
REMARK  0 active torsions:
REMARK  status: ('A' for Active; 'I' for Inactive)
ROOT
ATOM      1  C2' OXE d   1       4.302   0.468  -2.795  0.00  0.00     0.078 C 
ATOM      2  C1' OXE d   1       3.004  -0.040  -0.358  0.00  0.00     0.078 C 
ATOM      3  C1  OXE d   1       4.019   1.075  -0.396  0.00  0.00    -0.078 A 
ATOM      4  C2  OXE d   1       4.683   1.286  -1.581  0.00  0.00    -0.078 A 
ATOM      5  C3  OXE d   1       5.588   2.338  -1.685  0.00  0.00     0.003 A 
ATOM      6  C4  OXE d   1       5.942   3.084  -0.555  0.00  0.00    -0.002 A 
ATOM      7  C5  OXE d   1       5.307   2.859   0.671  0.00  0.00    -0.002 A 
ATOM      8  C6  OXE d   1       4.315   1.889   0.757  0.00  0.00     0.003 A 
ENDROOT
TORSDOF 0
ENDMDL
