MODEL 1
REMARK minimizedAffinity -0.848878682
REMARK minimizedRMSD -1
REMARK  0 active torsions:
REMARK  status: ('A' for Active; 'I' for Inactive)
ROOT
ATOM      1  C2' OXE d   1       3.392   0.379  -2.314  0.00  0.00     0.078 C 
ATOM      2  C1' OXE d   1       3.455  -1.132   0.051  0.00  0.00     0.078 C 
ATOM      3  C1  OXE d   1       4.066   0.246   0.080  0.00  0.00    -0.078 A 
ATOM      4  C2  OXE d   1       4.073   0.960  -1.094  0.00  0.00    -0.078 A 
ATOM      5  C3  OXE d   1       4.575   2.258  -1.108  0.00  0.00     0.003 A 
ATOM      6  C4  OXE d   1       5.212   2.784   0.022  0.00  0.00    -0.002 A 
ATOM      7  C5  OXE d   1       5.252   2.058   1.217  0.00  0.00    -0.002 A 
ATOM      8  C6  OXE d   1       4.647   0.807   1.275  0.00  0.00     0.003 A 
ENDROOT
TORSDOF 0
ENDMDL
