MODEL 1
REMARK minimizedAffinity 2.67447734
REMARK minimizedRMSD -1
REMARK  0 active torsions:
REMARK  status: ('A' for Active; 'I' for Inactive)
ROOT
ATOM      1  C2' OXE d   1       3.701  -1.155  -1.386  0.00  0.00     0.078 C 
ATOM      2  C1' OXE d   1       1.761   0.568  -0.314  0.00  0.00     0.078 C 
ATOM      3  C1  OXE d   1       3.188   0.743   0.144  0.00  0.00    -0.078 A 
ATOM      4  C2  OXE d   1       4.123  -0.135  -0.350  0.00  0.00    -0.078 A 
ATOM      5  C3  OXE d   1       5.462   0.017  -0.002  0.00  0.00     0.003 A 
ATOM      6  C4  OXE d   1       5.841   0.956   0.964  0.00  0.00    -0.002 A 
ATOM      7  C5  OXE d   1       4.898   1.834   1.510  0.00  0.00    -0.002 A 
ATOM      8  C6  OXE d   1       3.578   1.769   1.079  0.00  0.00     0.003 A 
ENDROOT
TORSDOF 0
ENDMDL
