MODEL 1
REMARK minimizedAffinity 7.43788528
REMARK minimizedRMSD -1
REMARK  0 active torsions:
REMARK  status: ('A' for Active; 'I' for Inactive)
ROOT
ATOM      1  C2' OXE d   1       5.989   3.799   0.409  0.00  0.00     0.078 C 
ATOM      2  C1' OXE d   1       3.317   3.770  -0.451  0.00  0.00     0.078 C 
ATOM      3  C1  OXE d   1       4.003   2.444  -0.241  0.00  0.00    -0.078 A 
ATOM      4  C2  OXE d   1       5.324   2.467   0.135  0.00  0.00    -0.078 A 
ATOM      5  C3  OXE d   1       5.988   1.272   0.396  0.00  0.00     0.003 A 
ATOM      6  C4  OXE d   1       5.369   0.045   0.130  0.00  0.00    -0.002 A 
ATOM      7  C5  OXE d   1       4.036  -0.002  -0.291  0.00  0.00    -0.002 A 
ATOM      8  C6  OXE d   1       3.327   1.185  -0.440  0.00  0.00     0.003 A 
ENDROOT
TORSDOF 0
ENDMDL
