MODEL 1
REMARK minimizedAffinity -3.87318397
REMARK minimizedRMSD -1
REMARK  0 active torsions:
REMARK  status: ('A' for Active; 'I' for Inactive)
ROOT
ATOM      1  C1  DEN d   1       0.154   1.116   0.700  0.00  0.00     0.130 A 
ATOM      2  C2  DEN d   1      -1.075   0.363   0.933  0.00  0.00    -0.031 A 
ATOM      3  C3  DEN d   1      -1.363  -0.428  -0.281  0.00  0.00     0.027 A 
ATOM      4  C4  DEN d   1      -0.029  -0.562  -2.484  0.00  0.00     0.027 A 
ATOM      5  C5  DEN d   1       1.078  -0.093  -3.156  0.00  0.00    -0.003 A 
ATOM      6  C6  DEN d   1       1.929   0.830  -2.608  0.00  0.00     0.001 A 
ATOM      7  C7  DEN d   1       1.712   1.279  -1.332  0.00  0.00     0.017 A 
ATOM      8  C8  DEN d   1       0.593   0.817  -0.651  0.00  0.00    -0.094 A 
ATOM      9  C9  DEN d   1      -0.248  -0.125  -1.218  0.00  0.00    -0.072 A 
ENDROOT
TORSDOF 0
ENDMDL
