MODEL 1
REMARK minimizedAffinity -5.81399584
REMARK minimizedRMSD -1
REMARK  0 active torsions:
REMARK  status: ('A' for Active; 'I' for Inactive)
ROOT
ATOM      1  C1  DEN d   1       1.133  -0.704  -0.388  0.00  0.00     0.130 A 
ATOM      2  C2  DEN d   1      -0.063  -0.358  -1.150  0.00  0.00    -0.031 A 
ATOM      3  C3  DEN d   1      -1.050   0.219  -0.215  0.00  0.00     0.027 A 
ATOM      4  C4  DEN d   1      -0.839   0.613   2.326  0.00  0.00     0.027 A 
ATOM      5  C5  DEN d   1      -0.014   0.468   3.419  0.00  0.00    -0.003 A 
ATOM      6  C6  DEN d   1       1.228  -0.103   3.327  0.00  0.00     0.001 A 
ATOM      7  C7  DEN d   1       1.699  -0.510   2.107  0.00  0.00     0.017 A 
ATOM      8  C8  DEN d   1       0.870  -0.375   1.001  0.00  0.00    -0.094 A 
ATOM      9  C9  DEN d   1      -0.377   0.216   1.113  0.00  0.00    -0.072 A 
ENDROOT
TORSDOF 0
ENDMDL
