MODEL 1
REMARK minimizedAffinity -5.35323095
REMARK minimizedRMSD -1
REMARK  0 active torsions:
REMARK  status: ('A' for Active; 'I' for Inactive)
ROOT
ATOM      1  C1  DEN d   1       1.497  -0.341   3.135  0.00  0.00     0.130 A 
ATOM      2  C2  DEN d   1       2.414  -1.039   2.238  0.00  0.00    -0.031 A 
ATOM      3  C3  DEN d   1       1.845  -0.992   0.876  0.00  0.00     0.027 A 
ATOM      4  C4  DEN d   1      -0.353   0.092   0.073  0.00  0.00     0.027 A 
ATOM      5  C5  DEN d   1      -1.472   0.790   0.472  0.00  0.00    -0.003 A 
ATOM      6  C6  DEN d   1      -1.694   1.128   1.780  0.00  0.00     0.001 A 
ATOM      7  C7  DEN d   1      -0.762   0.807   2.732  0.00  0.00     0.017 A 
ATOM      8  C8  DEN d   1       0.364   0.096   2.339  0.00  0.00    -0.094 A 
ATOM      9  C9  DEN d   1       0.577  -0.225   1.009  0.00  0.00    -0.072 A 
ENDROOT
TORSDOF 0
ENDMDL
