MODEL 1
REMARK minimizedAffinity -4.38262367
REMARK minimizedRMSD -1
REMARK  0 active torsions:
REMARK  status: ('A' for Active; 'I' for Inactive)
ROOT
ATOM      1  C1  DEN d   1       0.463   0.066   3.570  0.00  0.00     0.130 A 
ATOM      2  C2  DEN d   1       1.840  -0.391   3.397  0.00  0.00    -0.031 A 
ATOM      3  C3  DEN d   1       2.048  -0.678   1.964  0.00  0.00     0.027 A 
ATOM      4  C4  DEN d   1       0.385  -0.456   0.006  0.00  0.00     0.027 A 
ATOM      5  C5  DEN d   1      -0.905  -0.118  -0.339  0.00  0.00    -0.003 A 
ATOM      6  C6  DEN d   1      -1.832   0.270   0.593  0.00  0.00     0.001 A 
ATOM      7  C7  DEN d   1      -1.468   0.372   1.910  0.00  0.00     0.017 A 
ATOM      8  C8  DEN d   1      -0.172   0.026   2.265  0.00  0.00    -0.094 A 
ATOM      9  C9  DEN d   1       0.754  -0.352   1.307  0.00  0.00    -0.072 A 
ENDROOT
TORSDOF 0
ENDMDL
