MODEL 1
REMARK minimizedAffinity -6.55212116
REMARK minimizedRMSD -1
REMARK  0 active torsions:
REMARK  status: ('A' for Active; 'I' for Inactive)
ROOT
ATOM      1  C1  DEN d   1       0.735  -0.485  -0.295  0.00  0.00     0.130 A 
ATOM      2  C2  DEN d   1      -0.514  -0.197  -0.995  0.00  0.00    -0.031 A 
ATOM      3  C3  DEN d   1      -1.458   0.390  -0.022  0.00  0.00     0.027 A 
ATOM      4  C4  DEN d   1      -1.106   0.883   2.485  0.00  0.00     0.027 A 
ATOM      5  C5  DEN d   1      -0.214   0.799   3.531  0.00  0.00    -0.003 A 
ATOM      6  C6  DEN d   1       1.034   0.255   3.385  0.00  0.00     0.001 A 
ATOM      7  C7  DEN d   1       1.442  -0.185   2.153  0.00  0.00     0.017 A 
ATOM      8  C8  DEN d   1       0.546  -0.111   1.096  0.00  0.00    -0.094 A 
ATOM      9  C9  DEN d   1      -0.708   0.453   1.261  0.00  0.00    -0.072 A 
ENDROOT
TORSDOF 0
ENDMDL
