MODEL 1
REMARK minimizedAffinity -4.52394724
REMARK minimizedRMSD -1
REMARK  0 active torsions:
REMARK  status: ('A' for Active; 'I' for Inactive)
ROOT
ATOM      1  C1  DEN d   1      -0.675  -0.368   2.736  0.00  0.00     0.130 A 
ATOM      2  C2  DEN d   1       0.340  -0.665   3.743  0.00  0.00    -0.031 A 
ATOM      3  C3  DEN d   1       1.500  -1.270   3.056  0.00  0.00     0.027 A 
ATOM      4  C4  DEN d   1       1.822  -1.766   0.546  0.00  0.00     0.027 A 
ATOM      5  C5  DEN d   1       1.231  -1.699  -0.696  0.00  0.00    -0.003 A 
ATOM      6  C6  DEN d   1      -0.039  -1.219  -0.876  0.00  0.00     0.001 A 
ATOM      7  C7  DEN d   1      -0.744  -0.745   0.199  0.00  0.00     0.017 A 
ATOM      8  C8  DEN d   1      -0.157  -0.816   1.456  0.00  0.00    -0.094 A 
ATOM      9  C9  DEN d   1       1.133  -1.293   1.615  0.00  0.00    -0.072 A 
ENDROOT
TORSDOF 0
ENDMDL
