MODEL 1
REMARK minimizedAffinity -3.6432786
REMARK minimizedRMSD -1
REMARK  0 active torsions:
REMARK  status: ('A' for Active; 'I' for Inactive)
ROOT
ATOM      1  O1  BZF d   1      -1.981  -0.372   2.511  0.00  0.00    -0.204 OA
ATOM      2  C2  BZF d   1      -1.195  -0.347   3.646  0.00  0.00     0.174 A 
ATOM      3  C3  BZF d   1       0.091  -0.088   3.332  0.00  0.00    -0.012 A 
ATOM      4  C3A BZF d   1       0.093   0.150   1.921  0.00  0.00    -0.107 A 
ATOM      5  C4  BZF d   1       1.072   0.473   1.025  0.00  0.00     0.055 A 
ATOM      6  C5  BZF d   1       0.756   0.563  -0.294  0.00  0.00    -0.016 A 
ATOM      7  C6  BZF d   1      -0.525   0.331  -0.751  0.00  0.00     0.022 A 
ATOM      8  C7  BZF d   1      -1.530   0.012   0.101  0.00  0.00     0.029 A 
ATOM      9  C7A BZF d   1      -1.221  -0.047   1.438  0.00  0.00     0.058 A 
ENDROOT
TORSDOF 0
ENDMDL
