MODEL 1
REMARK minimizedAffinity -2.76648927
REMARK minimizedRMSD -1
REMARK  0 active torsions:
REMARK  status: ('A' for Active; 'I' for Inactive)
ROOT
ATOM      1  O1  BZF d   1      -1.887   0.032   2.169  0.00  0.00    -0.204 OA
ATOM      2  C2  BZF d   1      -1.087  -0.037   3.293  0.00  0.00     0.174 A 
ATOM      3  C3  BZF d   1       0.217   0.025   2.957  0.00  0.00    -0.012 A 
ATOM      4  C3A BZF d   1       0.231   0.234   1.541  0.00  0.00    -0.107 A 
ATOM      5  C4  BZF d   1       1.232   0.394   0.626  0.00  0.00     0.055 A 
ATOM      6  C5  BZF d   1       0.911   0.504  -0.690  0.00  0.00    -0.016 A 
ATOM      7  C6  BZF d   1      -0.397   0.453  -1.126  0.00  0.00     0.022 A 
ATOM      8  C7  BZF d   1      -1.424   0.302  -0.254  0.00  0.00     0.029 A 
ATOM      9  C7A BZF d   1      -1.105   0.223   1.079  0.00  0.00     0.058 A 
ENDROOT
TORSDOF 0
ENDMDL
