MODEL 1
REMARK minimizedAffinity -3.57823849
REMARK minimizedRMSD -1
REMARK  0 active torsions:
REMARK  status: ('A' for Active; 'I' for Inactive)
ROOT
ATOM      1  O1  BZF d   1      -1.740  -0.882   2.571  0.00  0.00    -0.204 OA
ATOM      2  C2  BZF d   1      -1.138  -0.423   3.726  0.00  0.00     0.174 A 
ATOM      3  C3  BZF d   1      -0.029   0.289   3.438  0.00  0.00    -0.012 A 
ATOM      4  C3A BZF d   1       0.017   0.351   2.009  0.00  0.00    -0.107 A 
ATOM      5  C4  BZF d   1       0.875   0.935   1.122  0.00  0.00     0.055 A 
ATOM      6  C5  BZF d   1       0.678   0.747  -0.209  0.00  0.00    -0.016 A 
ATOM      7  C6  BZF d   1      -0.362  -0.023  -0.688  0.00  0.00     0.022 A 
ATOM      8  C7  BZF d   1      -1.242  -0.618   0.154  0.00  0.00     0.029 A 
ATOM      9  C7A BZF d   1      -1.065  -0.402   1.498  0.00  0.00     0.058 A 
ENDROOT
TORSDOF 0
ENDMDL
