MODEL 1
REMARK minimizedAffinity -4.35088301
REMARK minimizedRMSD -1
REMARK  0 active torsions:
REMARK  status: ('A' for Active; 'I' for Inactive)
ROOT
ATOM      1  O1  BZF d   1       0.536   0.235   2.778  0.00  0.00    -0.204 OA
ATOM      2  C2  BZF d   1      -0.521  -0.348   3.451  0.00  0.00     0.174 A 
ATOM      3  C3  BZF d   1      -1.587  -0.487   2.638  0.00  0.00    -0.012 A 
ATOM      4  C3A BZF d   1      -1.141  -0.042   1.353  0.00  0.00    -0.107 A 
ATOM      5  C4  BZF d   1      -1.742   0.046   0.130  0.00  0.00     0.055 A 
ATOM      6  C5  BZF d   1      -1.053   0.592  -0.906  0.00  0.00    -0.016 A 
ATOM      7  C6  BZF d   1       0.234   1.065  -0.754  0.00  0.00     0.022 A 
ATOM      8  C7  BZF d   1       0.873   0.994   0.439  0.00  0.00     0.029 A 
ATOM      9  C7A BZF d   1       0.192   0.412   1.480  0.00  0.00     0.058 A 
ENDROOT
TORSDOF 0
ENDMDL
