MODEL 1
REMARK minimizedAffinity -4.67316914
REMARK minimizedRMSD -1
REMARK  0 active torsions:
REMARK  status: ('A' for Active; 'I' for Inactive)
ROOT
ATOM      1  O1  BZF d   1       0.590  -0.532   2.803  0.00  0.00    -0.204 OA
ATOM      2  C2  BZF d   1      -0.719  -0.889   3.063  0.00  0.00     0.174 A 
ATOM      3  C3  BZF d   1      -1.503  -0.644   1.993  0.00  0.00    -0.012 A 
ATOM      4  C3A BZF d   1      -0.612  -0.186   0.971  0.00  0.00    -0.107 A 
ATOM      5  C4  BZF d   1      -0.792   0.200  -0.327  0.00  0.00     0.055 A 
ATOM      6  C5  BZF d   1       0.275   0.661  -1.032  0.00  0.00    -0.016 A 
ATOM      7  C6  BZF d   1       1.531   0.755  -0.470  0.00  0.00     0.022 A 
ATOM      8  C7  BZF d   1       1.759   0.378   0.812  0.00  0.00     0.029 A 
ATOM      9  C7A BZF d   1       0.690  -0.119   1.517  0.00  0.00     0.058 A 
ENDROOT
TORSDOF 0
ENDMDL
