MODEL 1
REMARK minimizedAffinity -5.09963322
REMARK minimizedRMSD -1
REMARK  0 active torsions:
REMARK  status: ('A' for Active; 'I' for Inactive)
ROOT
ATOM      1  O1  BZF d   1      -0.554   0.277  -0.936  0.00  0.00    -0.204 OA
ATOM      2  C2  BZF d   1       0.794   0.582  -0.928  0.00  0.00     0.174 A 
ATOM      3  C3  BZF d   1       1.273   0.600   0.333  0.00  0.00    -0.012 A 
ATOM      4  C3A BZF d   1       0.176   0.196   1.158  0.00  0.00    -0.107 A 
ATOM      5  C4  BZF d   1       0.033   0.006   2.503  0.00  0.00     0.055 A 
ATOM      6  C5  BZF d   1      -1.190  -0.319   2.997  0.00  0.00    -0.016 A 
ATOM      7  C6  BZF d   1      -2.291  -0.459   2.178  0.00  0.00     0.022 A 
ATOM      8  C7  BZF d   1      -2.197  -0.286   0.837  0.00  0.00     0.029 A 
ATOM      9  C7A BZF d   1      -0.955   0.011   0.330  0.00  0.00     0.058 A 
ENDROOT
TORSDOF 0
ENDMDL
