MODEL 1
REMARK minimizedAffinity -3.48179293
REMARK minimizedRMSD -1
REMARK  0 active torsions:
REMARK  status: ('A' for Active; 'I' for Inactive)
ROOT
ATOM      1  O1  BZF d   1       1.236   1.010   0.447  0.00  0.00    -0.204 OA
ATOM      2  C2  BZF d   1       0.716   0.792  -0.815  0.00  0.00     0.174 A 
ATOM      3  C3  BZF d   1      -0.343  -0.040  -0.759  0.00  0.00    -0.012 A 
ATOM      4  C3A BZF d   1      -0.552  -0.290   0.635  0.00  0.00    -0.107 A 
ATOM      5  C4  BZF d   1      -1.467  -1.029   1.329  0.00  0.00     0.055 A 
ATOM      6  C5  BZF d   1      -1.351  -1.123   2.680  0.00  0.00    -0.016 A 
ATOM      7  C6  BZF d   1      -0.332  -0.497   3.367  0.00  0.00     0.022 A 
ATOM      8  C7  BZF d   1       0.596   0.252   2.722  0.00  0.00     0.029 A 
ATOM      9  C7A BZF d   1       0.462   0.376   1.360  0.00  0.00     0.058 A 
ENDROOT
TORSDOF 0
ENDMDL
