MODEL 1
REMARK minimizedAffinity -3.63426518
REMARK minimizedRMSD -1
REMARK  0 active torsions:
REMARK  status: ('A' for Active; 'I' for Inactive)
ROOT
ATOM      1  O1  BZF d   1      -1.862   0.193   0.158  0.00  0.00    -0.204 OA
ATOM      2  C2  BZF d   1      -1.360   0.484  -1.096  0.00  0.00     0.174 A 
ATOM      3  C3  BZF d   1      -0.021   0.642  -1.050  0.00  0.00    -0.012 A 
ATOM      4  C3A BZF d   1       0.347   0.346   0.300  0.00  0.00    -0.107 A 
ATOM      5  C4  BZF d   1       1.541   0.315   0.962  0.00  0.00     0.055 A 
ATOM      6  C5  BZF d   1       1.549   0.060   2.297  0.00  0.00    -0.016 A 
ATOM      7  C6  BZF d   1       0.384  -0.161   3.002  0.00  0.00     0.022 A 
ATOM      8  C7  BZF d   1      -0.824  -0.145   2.387  0.00  0.00     0.029 A 
ATOM      9  C7A BZF d   1      -0.833   0.079   1.032  0.00  0.00     0.058 A 
ENDROOT
TORSDOF 0
ENDMDL
