MODEL 1
REMARK minimizedAffinity -0.668195486
REMARK minimizedRMSD -1
REMARK  0 active torsions:
REMARK  status: ('A' for Active; 'I' for Inactive)
ROOT
ATOM      1  O1  BZF d   1      -0.851  -0.290  -0.588  0.00  0.00    -0.204 OA
ATOM      2  C2  BZF d   1       0.099   0.286  -1.410  0.00  0.00     0.174 A 
ATOM      3  C3  BZF d   1       1.160   0.707  -0.692  0.00  0.00    -0.012 A 
ATOM      4  C3A BZF d   1       0.895   0.291   0.651  0.00  0.00    -0.107 A 
ATOM      5  C4  BZF d   1       1.587   0.405   1.823  0.00  0.00     0.055 A 
ATOM      6  C5  BZF d   1       1.017  -0.044   2.973  0.00  0.00    -0.016 A 
ATOM      7  C6  BZF d   1      -0.243  -0.606   2.987  0.00  0.00     0.022 A 
ATOM      8  C7  BZF d   1      -0.965  -0.745   1.849  0.00  0.00     0.029 A 
ATOM      9  C7A BZF d   1      -0.379  -0.322   0.681  0.00  0.00     0.058 A 
ENDROOT
TORSDOF 0
ENDMDL
