MODEL 1
REMARK minimizedAffinity -3.9735198
REMARK minimizedRMSD -1
REMARK  0 active torsions:
REMARK  status: ('A' for Active; 'I' for Inactive)
ROOT
ATOM      1  O1  BZF d   1      -1.318   0.458  -0.810  0.00  0.00    -0.204 OA
ATOM      2  C2  BZF d   1      -0.288   0.612  -1.718  0.00  0.00     0.174 A 
ATOM      3  C3  BZF d   1       0.899   0.318  -1.150  0.00  0.00    -0.012 A 
ATOM      4  C3A BZF d   1       0.582  -0.132   0.171  0.00  0.00    -0.107 A 
ATOM      5  C4  BZF d   1       1.337  -0.581   1.217  0.00  0.00     0.055 A 
ATOM      6  C5  BZF d   1       0.727  -0.872   2.395  0.00  0.00    -0.016 A 
ATOM      7  C6  BZF d   1      -0.634  -0.722   2.565  0.00  0.00     0.022 A 
ATOM      8  C7  BZF d   1      -1.425  -0.285   1.555  0.00  0.00     0.029 A 
ATOM      9  C7A BZF d   1      -0.816  -0.021   0.353  0.00  0.00     0.058 A 
ENDROOT
TORSDOF 0
ENDMDL
