MODEL 1
REMARK minimizedAffinity -2.7103374
REMARK minimizedRMSD -1
REMARK  0 active torsions:
REMARK  status: ('A' for Active; 'I' for Inactive)
ROOT
ATOM      1  O1  BZF d   1      -0.326  -0.113  -0.446  0.00  0.00    -0.204 OA
ATOM      2  C2  BZF d   1       0.899   0.515  -0.558  0.00  0.00     0.174 A 
ATOM      3  C3  BZF d   1       1.451   0.707   0.657  0.00  0.00    -0.012 A 
ATOM      4  C3A BZF d   1       0.554   0.082   1.581  0.00  0.00    -0.107 A 
ATOM      5  C4  BZF d   1       0.563  -0.075   2.937  0.00  0.00     0.055 A 
ATOM      6  C5  BZF d   1      -0.501  -0.670   3.540  0.00  0.00    -0.016 A 
ATOM      7  C6  BZF d   1      -1.590  -1.113   2.818  0.00  0.00     0.022 A 
ATOM      8  C7  BZF d   1      -1.642  -0.983   1.470  0.00  0.00     0.029 A 
ATOM      9  C7A BZF d   1      -0.554  -0.412   0.855  0.00  0.00     0.058 A 
ENDROOT
TORSDOF 0
ENDMDL
