MODEL 1
REMARK minimizedAffinity -3.66783881
REMARK minimizedRMSD -1
REMARK  0 active torsions:
REMARK  status: ('A' for Active; 'I' for Inactive)
ROOT
ATOM      1  O1  BZF d   1       0.093   0.367  -0.660  0.00  0.00    -0.204 OA
ATOM      2  C2  BZF d   1       1.424   0.664  -0.443  0.00  0.00     0.174 A 
ATOM      3  C3  BZF d   1       1.718   0.613   0.872  0.00  0.00    -0.012 A 
ATOM      4  C3A BZF d   1       0.515   0.172   1.509  0.00  0.00    -0.107 A 
ATOM      5  C4  BZF d   1       0.182  -0.087   2.808  0.00  0.00     0.055 A 
ATOM      6  C5  BZF d   1      -1.099  -0.432   3.105  0.00  0.00    -0.016 A 
ATOM      7  C6  BZF d   1      -2.071  -0.521   2.130  0.00  0.00     0.022 A 
ATOM      8  C7  BZF d   1      -1.787  -0.279   0.828  0.00  0.00     0.029 A 
ATOM      9  C7A BZF d   1      -0.486   0.038   0.520  0.00  0.00     0.058 A 
ENDROOT
TORSDOF 0
ENDMDL
