MODEL 1
REMARK minimizedAffinity -5.22108078
REMARK minimizedRMSD -1
REMARK  0 active torsions:
REMARK  status: ('A' for Active; 'I' for Inactive)
ROOT
ATOM      1  O1  BZF d   1       0.842   0.752  -0.135  0.00  0.00    -0.204 OA
ATOM      2  C2  BZF d   1      -0.074   0.749  -1.169  0.00  0.00     0.174 A 
ATOM      3  C3  BZF d   1      -1.209   0.120  -0.800  0.00  0.00    -0.012 A 
ATOM      4  C3A BZF d   1      -1.023  -0.215   0.578  0.00  0.00    -0.107 A 
ATOM      5  C4  BZF d   1      -1.807  -0.838   1.507  0.00  0.00     0.055 A 
ATOM      6  C5  BZF d   1      -1.300  -1.077   2.745  0.00  0.00    -0.016 A 
ATOM      7  C6  BZF d   1      -0.015  -0.710   3.087  0.00  0.00     0.022 A 
ATOM      8  C7  BZF d   1       0.798  -0.085   2.201  0.00  0.00     0.029 A 
ATOM      9  C7A BZF d   1       0.278   0.186   0.959  0.00  0.00     0.058 A 
ENDROOT
TORSDOF 0
ENDMDL
