MODEL 1
REMARK minimizedAffinity -4.42931509
REMARK minimizedRMSD -1
REMARK  0 active torsions:
REMARK  status: ('A' for Active; 'I' for Inactive)
ROOT
ATOM      1  O1  BZF d   1      -0.455  -0.269  -0.261  0.00  0.00    -0.204 OA
ATOM      2  C2  BZF d   1       0.732   0.400  -0.491  0.00  0.00     0.174 A 
ATOM      3  C3  BZF d   1       1.299   0.781   0.672  0.00  0.00    -0.012 A 
ATOM      4  C3A BZF d   1       0.458   0.241   1.695  0.00  0.00    -0.107 A 
ATOM      5  C4  BZF d   1       0.505   0.266   3.060  0.00  0.00     0.055 A 
ATOM      6  C5  BZF d   1      -0.511  -0.295   3.767  0.00  0.00    -0.016 A 
ATOM      7  C6  BZF d   1      -1.590  -0.885   3.142  0.00  0.00     0.022 A 
ATOM      8  C7  BZF d   1      -1.679  -0.940   1.791  0.00  0.00     0.029 A 
ATOM      9  C7A BZF d   1      -0.638  -0.402   1.074  0.00  0.00     0.058 A 
ENDROOT
TORSDOF 0
ENDMDL
