MODEL 1
REMARK minimizedAffinity -1.11920428
REMARK minimizedRMSD -1
REMARK  0 active torsions:
REMARK  status: ('A' for Active; 'I' for Inactive)
ROOT
ATOM      1  O1  BZF d   1       1.396   0.615   0.857  0.00  0.00    -0.204 OA
ATOM      2  C2  BZF d   1       0.947   0.506   2.159  0.00  0.00     0.174 A 
ATOM      3  C3  BZF d   1      -0.400   0.472   2.200  0.00  0.00    -0.012 A 
ATOM      4  C3A BZF d   1      -0.818   0.473   0.831  0.00  0.00    -0.107 A 
ATOM      5  C4  BZF d   1      -2.040   0.432   0.223  0.00  0.00     0.055 A 
ATOM      6  C5  BZF d   1      -2.106   0.521  -1.132  0.00  0.00    -0.016 A 
ATOM      7  C6  BZF d   1      -0.973   0.656  -1.907  0.00  0.00     0.022 A 
ATOM      8  C7  BZF d   1       0.261   0.696  -1.349  0.00  0.00     0.029 A 
ATOM      9  C7A BZF d   1       0.334   0.573   0.017  0.00  0.00     0.058 A 
ENDROOT
TORSDOF 0
ENDMDL
