MODEL 1
REMARK minimizedAffinity -0.802277565
REMARK minimizedRMSD -1
REMARK  0 active torsions:
REMARK  status: ('A' for Active; 'I' for Inactive)
ROOT
ATOM      1  O1  BZF d   1       0.153  -1.930   1.923  0.00  0.00    -0.204 OA
ATOM      2  C2  BZF d   1      -1.096  -2.494   2.096  0.00  0.00     0.174 A 
ATOM      3  C3  BZF d   1      -1.992  -1.940   1.254  0.00  0.00    -0.012 A 
ATOM      4  C3A BZF d   1      -1.237  -1.035   0.443  0.00  0.00    -0.107 A 
ATOM      5  C4  BZF d   1      -1.564  -0.201  -0.587  0.00  0.00     0.055 A 
ATOM      6  C5  BZF d   1      -0.606   0.605  -1.115  0.00  0.00    -0.016 A 
ATOM      7  C6  BZF d   1       0.687   0.607  -0.633  0.00  0.00     0.022 A 
ATOM      8  C7  BZF d   1       1.061  -0.207   0.384  0.00  0.00     0.029 A 
ATOM      9  C7A BZF d   1       0.103  -1.046   0.897  0.00  0.00     0.058 A 
ENDROOT
TORSDOF 0
ENDMDL
