MODEL 1
REMARK minimizedAffinity 13.3875809
REMARK minimizedRMSD -1
REMARK  0 active torsions:
REMARK  status: ('A' for Active; 'I' for Inactive)
ROOT
ATOM      1  C   UNL d   1      -3.710   0.951   3.327  0.00  0.00     0.023 A 
ATOM      2  C1  UNL d   1      -4.824   1.490   3.970  0.00  0.00     0.003 A 
ATOM      3  C2  UNL d   1      -4.695   2.650   4.737  0.00  0.00     0.048 A 
ATOM      4  C3  UNL d   1      -3.450   3.265   4.856  0.00  0.00     0.023 A 
ATOM      5  C4  UNL d   1      -2.332   2.729   4.214  0.00  0.00     0.048 A 
ATOM      6  C5  UNL d   1      -2.466   1.569   3.449  0.00  0.00     0.003 A 
ATOM      7  I   UNL d   1      -3.256   4.991   5.998  0.00  0.00    -0.146 I 
ENDROOT
TORSDOF 0
ENDMDL
