MODEL 1
REMARK minimizedAffinity 12.0865345
REMARK minimizedRMSD -1
REMARK  0 active torsions:
REMARK  status: ('A' for Active; 'I' for Inactive)
ROOT
ATOM      1  C   UNL d   1      -1.966  -0.031  -1.840  0.00  0.00     0.023 A 
ATOM      2  C1  UNL d   1      -1.203   0.700  -2.750  0.00  0.00     0.003 A 
ATOM      3  C2  UNL d   1      -1.790   1.731  -3.486  0.00  0.00     0.048 A 
ATOM      4  C3  UNL d   1      -3.141   2.026  -3.307  0.00  0.00     0.023 A 
ATOM      5  C4  UNL d   1      -3.909   1.298  -2.397  0.00  0.00     0.048 A 
ATOM      6  C5  UNL d   1      -3.318   0.267  -1.664  0.00  0.00     0.003 A 
ATOM      7  I   UNL d   1      -4.017   3.560  -4.402  0.00  0.00    -0.146 I 
ENDROOT
TORSDOF 0
ENDMDL
