MODEL 1
REMARK minimizedAffinity 12.4534311
REMARK minimizedRMSD -1
REMARK  0 active torsions:
REMARK  status: ('A' for Active; 'I' for Inactive)
ROOT
ATOM      1  C   UNL d   1      -0.956  -0.276   2.810  0.00  0.00     0.023 A 
ATOM      2  C1  UNL d   1      -1.235  -1.556   2.331  0.00  0.00     0.003 A 
ATOM      3  C2  UNL d   1      -0.213  -2.336   1.786  0.00  0.00     0.048 A 
ATOM      4  C3  UNL d   1       1.086  -1.831   1.725  0.00  0.00     0.023 A 
ATOM      5  C4  UNL d   1       1.369  -0.551   2.205  0.00  0.00     0.048 A 
ATOM      6  C5  UNL d   1       0.344   0.226   2.748  0.00  0.00     0.003 A 
ATOM      7  I   UNL d   1       2.608  -2.991   0.915  0.00  0.00    -0.146 I 
ENDROOT
TORSDOF 0
ENDMDL
