MODEL 1
REMARK minimizedAffinity 18.9353542
REMARK minimizedRMSD -1
REMARK  0 active torsions:
REMARK  status: ('A' for Active; 'I' for Inactive)
ROOT
ATOM      1  C   UNL d   1      -5.632   3.757  -5.988  0.00  0.00     0.023 A 
ATOM      2  C1  UNL d   1      -5.570   2.375  -5.812  0.00  0.00     0.003 A 
ATOM      3  C2  UNL d   1      -4.676   1.825  -4.891  0.00  0.00     0.048 A 
ATOM      4  C3  UNL d   1      -3.847   2.664  -4.148  0.00  0.00     0.023 A 
ATOM      5  C4  UNL d   1      -3.905   4.048  -4.320  0.00  0.00     0.048 A 
ATOM      6  C5  UNL d   1      -4.800   4.593  -5.243  0.00  0.00     0.003 A 
ATOM      7  I   UNL d   1      -2.515   1.849  -2.777  0.00  0.00    -0.146 I 
ENDROOT
TORSDOF 0
ENDMDL
