MODEL 1
REMARK minimizedAffinity 9.22502232
REMARK minimizedRMSD -1
REMARK  0 active torsions:
REMARK  status: ('A' for Active; 'I' for Inactive)
ROOT
ATOM      1  C   UNL d   1       1.164   6.000   5.953  0.00  0.00     0.023 A 
ATOM      2  C1  UNL d   1       0.219   5.948   4.928  0.00  0.00     0.003 A 
ATOM      3  C2  UNL d   1       0.306   4.961   3.945  0.00  0.00     0.048 A 
ATOM      4  C3  UNL d   1       1.341   4.027   3.993  0.00  0.00     0.023 A 
ATOM      5  C4  UNL d   1       2.288   4.074   5.017  0.00  0.00     0.048 A 
ATOM      6  C5  UNL d   1       2.197   5.064   5.997  0.00  0.00     0.003 A 
ATOM      7  I   UNL d   1       1.473   2.556   2.530  0.00  0.00    -0.146 I 
ENDROOT
TORSDOF 0
ENDMDL
