MODEL 1
REMARK minimizedAffinity 8.48470592
REMARK minimizedRMSD -1
REMARK  0 active torsions:
REMARK  status: ('A' for Active; 'I' for Inactive)
ROOT
ATOM      1  C   UNL d   1      -0.635   6.000   5.004  0.00  0.00     0.023 A 
ATOM      2  C1  UNL d   1      -0.402   5.353   3.790  0.00  0.00     0.003 A 
ATOM      3  C2  UNL d   1      -1.062   4.158   3.497  0.00  0.00     0.048 A 
ATOM      4  C3  UNL d   1      -1.955   3.616   4.421  0.00  0.00     0.023 A 
ATOM      5  C4  UNL d   1      -2.192   4.260   5.636  0.00  0.00     0.048 A 
ATOM      6  C5  UNL d   1      -1.529   5.454   5.926  0.00  0.00     0.003 A 
ATOM      7  I   UNL d   1      -2.938   1.838   3.986  0.00  0.00    -0.146 I 
ENDROOT
TORSDOF 0
ENDMDL
