MODEL 1
REMARK minimizedAffinity 11.1960382
REMARK minimizedRMSD -1
REMARK  0 active torsions:
REMARK  status: ('A' for Active; 'I' for Inactive)
ROOT
ATOM      1  C   UNL d   1       1.107  -0.905   0.150  0.00  0.00     0.023 A 
ATOM      2  C1  UNL d   1       0.335  -1.691  -0.706  0.00  0.00     0.003 A 
ATOM      3  C2  UNL d   1       0.757  -2.979  -1.043  0.00  0.00     0.048 A 
ATOM      4  C3  UNL d   1       1.950  -3.475  -0.519  0.00  0.00     0.023 A 
ATOM      5  C4  UNL d   1       2.725  -2.693   0.338  0.00  0.00     0.048 A 
ATOM      6  C5  UNL d   1       2.300  -1.405   0.672  0.00  0.00     0.003 A 
ATOM      7  I   UNL d   1       2.579  -5.392  -1.019  0.00  0.00    -0.146 I 
ENDROOT
TORSDOF 0
ENDMDL
