MODEL 1
REMARK minimizedAffinity 9.58119869
REMARK minimizedRMSD -1
REMARK  0 active torsions:
REMARK  status: ('A' for Active; 'I' for Inactive)
ROOT
ATOM      1  C   UNL d   1       3.163  -1.674   1.248  0.00  0.00     0.023 A 
ATOM      2  C1  UNL d   1       2.095  -2.471   0.834  0.00  0.00     0.003 A 
ATOM      3  C2  UNL d   1       0.819  -2.258   1.357  0.00  0.00     0.048 A 
ATOM      4  C3  UNL d   1       0.616  -1.245   2.293  0.00  0.00     0.023 A 
ATOM      5  C4  UNL d   1       1.680  -0.444   2.710  0.00  0.00     0.048 A 
ATOM      6  C5  UNL d   1       2.955  -0.661   2.184  0.00  0.00     0.003 A 
ATOM      7  I   UNL d   1      -1.284  -0.925   3.073  0.00  0.00    -0.146 I 
ENDROOT
TORSDOF 0
ENDMDL
