MODEL 1
REMARK minimizedAffinity 14.4920387
REMARK minimizedRMSD -1
REMARK  0 active torsions:
REMARK  status: ('A' for Active; 'I' for Inactive)
ROOT
ATOM      1  C   UNL d   1      -3.016   1.265  -1.777  0.00  0.00     0.023 A 
ATOM      2  C1  UNL d   1      -2.651   2.406  -2.493  0.00  0.00     0.003 A 
ATOM      3  C2  UNL d   1      -1.499   2.399  -3.280  0.00  0.00     0.048 A 
ATOM      4  C3  UNL d   1      -0.715   1.247  -3.349  0.00  0.00     0.023 A 
ATOM      5  C4  UNL d   1      -1.076   0.103  -2.636  0.00  0.00     0.048 A 
ATOM      6  C5  UNL d   1      -2.229   0.115  -1.848  0.00  0.00     0.003 A 
ATOM      7  I   UNL d   1       1.001   1.234  -4.521  0.00  0.00    -0.146 I 
ENDROOT
TORSDOF 0
ENDMDL
