MODEL 1
REMARK minimizedAffinity 7.32351685
REMARK minimizedRMSD -1
REMARK  0 active torsions:
REMARK  status: ('A' for Active; 'I' for Inactive)
ROOT
ATOM      1  C   UNL d   1       3.149  -1.213   1.294  0.00  0.00     0.023 A 
ATOM      2  C1  UNL d   1       2.798  -0.767   2.568  0.00  0.00     0.003 A 
ATOM      3  C2  UNL d   1       1.498  -0.953   3.041  0.00  0.00     0.048 A 
ATOM      4  C3  UNL d   1       0.553  -1.587   2.234  0.00  0.00     0.023 A 
ATOM      5  C4  UNL d   1       0.900  -2.036   0.959  0.00  0.00     0.048 A 
ATOM      6  C5  UNL d   1       2.202  -1.846   0.490  0.00  0.00     0.003 A 
ATOM      7  I   UNL d   1      -1.383  -1.866   2.936  0.00  0.00    -0.146 I 
ENDROOT
TORSDOF 0
ENDMDL
