MODEL 1
REMARK minimizedAffinity 2.21492243
REMARK minimizedRMSD -1
REMARK  0 active torsions:
REMARK  status: ('A' for Active; 'I' for Inactive)
ROOT
ATOM      1  C   UNL d   1       1.787  -1.055   1.435  0.00  0.00     0.023 A 
ATOM      2  C1  UNL d   1       2.415  -1.376   0.232  0.00  0.00     0.003 A 
ATOM      3  C2  UNL d   1       2.936  -2.656   0.034  0.00  0.00     0.048 A 
ATOM      4  C3  UNL d   1       2.824  -3.612   1.043  0.00  0.00     0.023 A 
ATOM      5  C4  UNL d   1       2.195  -3.296   2.248  0.00  0.00     0.048 A 
ATOM      6  C5  UNL d   1       1.676  -2.014   2.442  0.00  0.00     0.003 A 
ATOM      7  I   UNL d   1       3.598  -5.518   0.750  0.00  0.00    -0.146 I 
ENDROOT
TORSDOF 0
ENDMDL
