MODEL 1
REMARK minimizedAffinity 8.89132881
REMARK minimizedRMSD -1
REMARK  0 active torsions:
REMARK  status: ('A' for Active; 'I' for Inactive)
ROOT
ATOM      1  C   UNL d   1      -1.203  -1.515  -1.463  0.00  0.00     0.023 A 
ATOM      2  C1  UNL d   1       0.093  -2.027  -1.396  0.00  0.00     0.003 A 
ATOM      3  C2  UNL d   1       0.841  -1.884  -0.226  0.00  0.00     0.048 A 
ATOM      4  C3  UNL d   1       0.288  -1.230   0.874  0.00  0.00     0.023 A 
ATOM      5  C4  UNL d   1      -1.009  -0.717   0.812  0.00  0.00     0.048 A 
ATOM      6  C5  UNL d   1      -1.754  -0.861  -0.361  0.00  0.00     0.003 A 
ATOM      7  I   UNL d   1       1.400  -1.018   2.617  0.00  0.00    -0.146 I 
ENDROOT
TORSDOF 0
ENDMDL
