MODEL 1
REMARK minimizedAffinity -2.07694626
REMARK minimizedRMSD -1
REMARK  0 active torsions:
REMARK  status: ('A' for Active; 'I' for Inactive)
ROOT
ATOM      1  C   UNL d   1       2.432  -2.660   4.322  0.00  0.00     0.023 A 
ATOM      2  C1  UNL d   1       2.529  -3.728   3.429  0.00  0.00     0.003 A 
ATOM      3  C2  UNL d   1       2.126  -3.569   2.102  0.00  0.00     0.048 A 
ATOM      4  C3  UNL d   1       1.629  -2.339   1.673  0.00  0.00     0.023 A 
ATOM      5  C4  UNL d   1       1.531  -1.267   2.562  0.00  0.00     0.048 A 
ATOM      6  C5  UNL d   1       1.933  -1.432   3.889  0.00  0.00     0.003 A 
ATOM      7  I   UNL d   1       1.029  -2.099  -0.303  0.00  0.00    -0.146 I 
ENDROOT
TORSDOF 0
ENDMDL
