MODEL 1
REMARK minimizedAffinity 2.43931532
REMARK minimizedRMSD -1
REMARK  0 active torsions:
REMARK  status: ('A' for Active; 'I' for Inactive)
ROOT
ATOM      1  C   UNL d   1      -5.952   2.632  -3.868  0.00  0.00     0.023 A 
ATOM      2  C1  UNL d   1      -5.978   2.221  -5.200  0.00  0.00     0.003 A 
ATOM      3  C2  UNL d   1      -5.990   0.860  -5.513  0.00  0.00     0.048 A 
ATOM      4  C3  UNL d   1      -5.978  -0.085  -4.487  0.00  0.00     0.023 A 
ATOM      5  C4  UNL d   1      -5.953   0.321  -3.152  0.00  0.00     0.048 A 
ATOM      6  C5  UNL d   1      -5.940   1.683  -2.845  0.00  0.00     0.003 A 
ATOM      7  I   UNL d   1      -5.996  -2.111  -4.949  0.00  0.00    -0.146 I 
ENDROOT
TORSDOF 0
ENDMDL
