MODEL 1
REMARK minimizedAffinity 7.23746395
REMARK minimizedRMSD -1
REMARK  0 active torsions:
REMARK  status: ('A' for Active; 'I' for Inactive)
ROOT
ATOM      1  C   UNL d   1       1.437  -0.503   2.314  0.00  0.00     0.023 A 
ATOM      2  C1  UNL d   1       1.684  -1.592   3.150  0.00  0.00     0.003 A 
ATOM      3  C2  UNL d   1       2.993  -2.031   3.359  0.00  0.00     0.048 A 
ATOM      4  C3  UNL d   1       4.051  -1.376   2.730  0.00  0.00     0.023 A 
ATOM      5  C4  UNL d   1       3.809  -0.285   1.894  0.00  0.00     0.048 A 
ATOM      6  C5  UNL d   1       2.498   0.150   1.687  0.00  0.00     0.003 A 
ATOM      7  I   UNL d   1       6.000  -2.027   3.040  0.00  0.00    -0.146 I 
ENDROOT
TORSDOF 0
ENDMDL
