MODEL 1
REMARK minimizedAffinity 13.9878101
REMARK minimizedRMSD -1
REMARK  0 active torsions:
REMARK  status: ('A' for Active; 'I' for Inactive)
ROOT
ATOM      1  C   UNL d   1       3.199   2.513   0.930  0.00  0.00     0.023 A 
ATOM      2  C1  UNL d   1       2.625   2.605   2.198  0.00  0.00     0.003 A 
ATOM      3  C2  UNL d   1       2.322   1.446   2.915  0.00  0.00     0.048 A 
ATOM      4  C3  UNL d   1       2.596   0.197   2.358  0.00  0.00     0.023 A 
ATOM      5  C4  UNL d   1       3.171   0.100   1.089  0.00  0.00     0.048 A 
ATOM      6  C5  UNL d   1       3.471   1.262   0.376  0.00  0.00     0.003 A 
ATOM      7  I   UNL d   1       2.147  -1.530   3.423  0.00  0.00    -0.146 I 
ENDROOT
TORSDOF 0
ENDMDL
