MODEL 1
REMARK minimizedAffinity 7.85347891
REMARK minimizedRMSD -1
REMARK  0 active torsions:
REMARK  status: ('A' for Active; 'I' for Inactive)
ROOT
ATOM      1  C   UNL d   1       2.154  -2.047   4.152  0.00  0.00     0.023 A 
ATOM      2  C1  UNL d   1       1.318  -0.945   3.977  0.00  0.00     0.003 A 
ATOM      3  C2  UNL d   1       1.635   0.030   3.029  0.00  0.00     0.048 A 
ATOM      4  C3  UNL d   1       2.789  -0.104   2.259  0.00  0.00     0.023 A 
ATOM      5  C4  UNL d   1       3.629  -1.206   2.430  0.00  0.00     0.048 A 
ATOM      6  C5  UNL d   1       3.308  -2.178   3.379  0.00  0.00     0.003 A 
ATOM      7  I   UNL d   1       3.263   1.345   0.847  0.00  0.00    -0.146 I 
ENDROOT
TORSDOF 0
ENDMDL
