MODEL 1
REMARK minimizedAffinity 0.851310015
REMARK minimizedRMSD -1
REMARK  0 active torsions:
REMARK  status: ('A' for Active; 'I' for Inactive)
ROOT
ATOM      1  C   UNL d   1       2.365  -0.567   1.924  0.00  0.00     0.023 A 
ATOM      2  C1  UNL d   1       1.407  -0.457   2.932  0.00  0.00     0.003 A 
ATOM      3  C2  UNL d   1       1.384  -1.382   3.979  0.00  0.00     0.048 A 
ATOM      4  C3  UNL d   1       2.322  -2.413   4.011  0.00  0.00     0.023 A 
ATOM      5  C4  UNL d   1       3.283  -2.526   3.005  0.00  0.00     0.048 A 
ATOM      6  C5  UNL d   1       3.301  -1.600   1.960  0.00  0.00     0.003 A 
ATOM      7  I   UNL d   1       2.290  -3.790   5.568  0.00  0.00    -0.146 I 
ENDROOT
TORSDOF 0
ENDMDL
