MODEL 1
REMARK minimizedAffinity 9.09520149
REMARK minimizedRMSD -1
REMARK  0 active torsions:
REMARK  status: ('A' for Active; 'I' for Inactive)
ROOT
ATOM      1  C   UNL d   1       1.404  -3.870   5.285  0.00  0.00     0.023 A 
ATOM      2  C1  UNL d   1       1.869  -2.618   4.881  0.00  0.00     0.003 A 
ATOM      3  C2  UNL d   1       3.188  -2.469   4.448  0.00  0.00     0.048 A 
ATOM      4  C3  UNL d   1       4.036  -3.575   4.420  0.00  0.00     0.023 A 
ATOM      5  C4  UNL d   1       3.575  -4.830   4.823  0.00  0.00     0.048 A 
ATOM      6  C5  UNL d   1       2.255  -4.974   5.256  0.00  0.00     0.003 A 
ATOM      7  I   UNL d   1       6.000  -3.356   3.776  0.00  0.00    -0.146 I 
ENDROOT
TORSDOF 0
ENDMDL
