MODEL 1
REMARK minimizedAffinity 8.84783936
REMARK minimizedRMSD -1
REMARK  0 active torsions:
REMARK  status: ('A' for Active; 'I' for Inactive)
ROOT
ATOM      1  C   UNL d   1       2.301  -0.796   3.553  0.00  0.00     0.023 A 
ATOM      2  C1  UNL d   1       1.127  -0.176   3.125  0.00  0.00     0.003 A 
ATOM      3  C2  UNL d   1       0.514  -0.581   1.938  0.00  0.00     0.048 A 
ATOM      4  C3  UNL d   1       1.080  -1.607   1.183  0.00  0.00     0.023 A 
ATOM      5  C4  UNL d   1       2.254  -2.232   1.607  0.00  0.00     0.048 A 
ATOM      6  C5  UNL d   1       2.864  -1.823   2.794  0.00  0.00     0.003 A 
ATOM      7  I   UNL d   1       0.170  -2.212  -0.585  0.00  0.00    -0.146 I 
ENDROOT
TORSDOF 0
ENDMDL
