MODEL 1
REMARK minimizedAffinity -5.08372688
REMARK minimizedRMSD -1
REMARK  0 active torsions:
REMARK  status: ('A' for Active; 'I' for Inactive)
ROOT
ATOM      1  C2' OXE d   1      -0.977  -1.142   1.332  0.00  0.00     0.078 C 
ATOM      2  C1' OXE d   1      -0.809   0.939  -0.545  0.00  0.00     0.078 C 
ATOM      3  C1  OXE d   1       0.465   0.221  -0.174  0.00  0.00    -0.078 A 
ATOM      4  C2  OXE d   1       0.380  -0.765   0.780  0.00  0.00    -0.078 A 
ATOM      5  C3  OXE d   1       1.515  -1.496   1.118  0.00  0.00     0.003 A 
ATOM      6  C4  OXE d   1       2.769  -1.134   0.610  0.00  0.00    -0.002 A 
ATOM      7  C5  OXE d   1       2.883  -0.107  -0.333  0.00  0.00    -0.002 A 
ATOM      8  C6  OXE d   1       1.738   0.551  -0.766  0.00  0.00     0.003 A 
ENDROOT
TORSDOF 0
ENDMDL
