MODEL 1
REMARK minimizedAffinity 0.383604199
REMARK minimizedRMSD -1
REMARK  0 active torsions:
REMARK  status: ('A' for Active; 'I' for Inactive)
ROOT
ATOM      1  C2' OXE d   1       3.792  -1.751   1.919  0.00  0.00     0.078 C 
ATOM      2  C1' OXE d   1       1.667  -1.704   3.753  0.00  0.00     0.078 C 
ATOM      3  C1  OXE d   1       1.378  -1.292   2.331  0.00  0.00    -0.078 A 
ATOM      4  C2  OXE d   1       2.434  -1.273   1.452  0.00  0.00    -0.078 A 
ATOM      5  C3  OXE d   1       2.212  -0.953   0.115  0.00  0.00     0.003 A 
ATOM      6  C4  OXE d   1       0.955  -0.502  -0.306  0.00  0.00    -0.002 A 
ATOM      7  C5  OXE d   1      -0.124  -0.476   0.582  0.00  0.00    -0.002 A 
ATOM      8  C6  OXE d   1       0.060  -0.907   1.891  0.00  0.00     0.003 A 
ENDROOT
TORSDOF 0
ENDMDL
