MODEL 1
REMARK minimizedAffinity -2.3399384
REMARK minimizedRMSD -1
REMARK  0 active torsions:
REMARK  status: ('A' for Active; 'I' for Inactive)
ROOT
ATOM      1  C2' OXE d   1       1.254  -3.041   1.204  0.00  0.00     0.078 C 
ATOM      2  C1' OXE d   1       3.152  -1.042   0.672  0.00  0.00     0.078 C 
ATOM      3  C1  OXE d   1       1.697  -0.704   0.465  0.00  0.00    -0.078 A 
ATOM      4  C2  OXE d   1       0.778  -1.702   0.683  0.00  0.00    -0.078 A 
ATOM      5  C3  OXE d   1      -0.581  -1.428   0.560  0.00  0.00     0.003 A 
ATOM      6  C4  OXE d   1      -1.012  -0.190   0.068  0.00  0.00    -0.002 A 
ATOM      7  C5  OXE d   1      -0.090   0.828  -0.199  0.00  0.00    -0.002 A 
ATOM      8  C6  OXE d   1       1.261   0.602   0.035  0.00  0.00     0.003 A 
ENDROOT
TORSDOF 0
ENDMDL
