MODEL 1
REMARK minimizedAffinity -5.61684227
REMARK minimizedRMSD -1
REMARK  0 active torsions:
REMARK  status: ('A' for Active; 'I' for Inactive)
ROOT
ATOM      1  C2' OXE d   1      -0.783   0.834  -0.233  0.00  0.00     0.078 C 
ATOM      2  C1' OXE d   1      -1.512  -0.611   2.061  0.00  0.00     0.078 C 
ATOM      3  C1  OXE d   1      -0.284  -1.058   1.308  0.00  0.00    -0.078 A 
ATOM      4  C2  OXE d   1       0.039  -0.374   0.161  0.00  0.00    -0.078 A 
ATOM      5  C3  OXE d   1       1.193  -0.711  -0.541  0.00  0.00     0.003 A 
ATOM      6  C4  OXE d   1       1.942  -1.836  -0.176  0.00  0.00    -0.002 A 
ATOM      7  C5  OXE d   1       1.608  -2.571   0.967  0.00  0.00    -0.002 A 
ATOM      8  C6  OXE d   1       0.526  -2.170   1.742  0.00  0.00     0.003 A 
ENDROOT
TORSDOF 0
ENDMDL
