MODEL 1
REMARK minimizedAffinity -4.76615953
REMARK minimizedRMSD -1
REMARK  0 active torsions:
REMARK  status: ('A' for Active; 'I' for Inactive)
ROOT
ATOM      1  C2' OXE d   1       1.417  -2.651   1.520  0.00  0.00     0.078 C 
ATOM      2  C1' OXE d   1      -1.048  -1.716   2.486  0.00  0.00     0.078 C 
ATOM      3  C1  OXE d   1      -0.361  -0.909   1.413  0.00  0.00    -0.078 A 
ATOM      4  C2  OXE d   1       0.867  -1.348   0.980  0.00  0.00    -0.078 A 
ATOM      5  C3  OXE d   1       1.518  -0.671  -0.047  0.00  0.00     0.003 A 
ATOM      6  C4  OXE d   1       1.008   0.538  -0.534  0.00  0.00    -0.002 A 
ATOM      7  C5  OXE d   1      -0.222   1.025  -0.078  0.00  0.00    -0.002 A 
ATOM      8  C6  OXE d   1      -0.938   0.293   0.863  0.00  0.00     0.003 A 
ENDROOT
TORSDOF 0
ENDMDL
