MODEL 1
REMARK minimizedAffinity 0.425296664
REMARK minimizedRMSD -1
REMARK  0 active torsions:
REMARK  status: ('A' for Active; 'I' for Inactive)
ROOT
ATOM      1  C2' OXE d   1       1.965  -1.709   0.956  0.00  0.00     0.078 C 
ATOM      2  C1' OXE d   1      -0.441  -1.129   2.281  0.00  0.00     0.078 C 
ATOM      3  C1  OXE d   1      -0.144  -0.385   1.003  0.00  0.00    -0.078 A 
ATOM      4  C2  OXE d   1       1.056  -0.641   0.386  0.00  0.00    -0.078 A 
ATOM      5  C3  OXE d   1       1.356  -0.023  -0.825  0.00  0.00     0.003 A 
ATOM      6  C4  OXE d   1       0.514   0.971  -1.340  0.00  0.00    -0.002 A 
ATOM      7  C5  OXE d   1      -0.695   1.276  -0.707  0.00  0.00    -0.002 A 
ATOM      8  C6  OXE d   1      -1.059   0.578   0.440  0.00  0.00     0.003 A 
ENDROOT
TORSDOF 0
ENDMDL
