MODEL 1
REMARK minimizedAffinity -5.2055912
REMARK minimizedRMSD -1
REMARK  0 active torsions:
REMARK  status: ('A' for Active; 'I' for Inactive)
ROOT
ATOM      1  C2' OXE d   1       1.023  -2.564   0.753  0.00  0.00     0.078 C 
ATOM      2  C1' OXE d   1      -1.368  -1.347   1.578  0.00  0.00     0.078 C 
ATOM      3  C1  OXE d   1      -0.423  -0.535   0.728  0.00  0.00    -0.078 A 
ATOM      4  C2  OXE d   1       0.766  -1.123   0.368  0.00  0.00    -0.078 A 
ATOM      5  C3  OXE d   1       1.650  -0.439  -0.462  0.00  0.00     0.003 A 
ATOM      6  C4  OXE d   1       1.409   0.897  -0.805  0.00  0.00    -0.002 A 
ATOM      7  C5  OXE d   1       0.223   1.528  -0.415  0.00  0.00    -0.002 A 
ATOM      8  C6  OXE d   1      -0.721   0.813   0.314  0.00  0.00     0.003 A 
ENDROOT
TORSDOF 0
ENDMDL
