MODEL 1
REMARK minimizedAffinity -2.72691393
REMARK minimizedRMSD -1
REMARK  0 active torsions:
REMARK  status: ('A' for Active; 'I' for Inactive)
ROOT
ATOM      1  C2' OXE d   1      -1.503  -1.748   0.965  0.00  0.00     0.078 C 
ATOM      2  C1' OXE d   1       0.953  -3.099   0.817  0.00  0.00     0.078 C 
ATOM      3  C1  OXE d   1       0.920  -1.651   0.396  0.00  0.00    -0.078 A 
ATOM      4  C2  OXE d   1      -0.295  -1.011   0.428  0.00  0.00    -0.078 A 
ATOM      5  C3  OXE d   1      -0.371   0.340   0.102  0.00  0.00     0.003 A 
ATOM      6  C4  OXE d   1       0.749   1.012  -0.403  0.00  0.00    -0.002 A 
ATOM      7  C5  OXE d   1       1.988   0.367  -0.481  0.00  0.00    -0.002 A 
ATOM      8  C6  OXE d   1       2.100  -0.949  -0.046  0.00  0.00     0.003 A 
ENDROOT
TORSDOF 0
ENDMDL
