MODEL 1
REMARK minimizedAffinity -4.175354
REMARK minimizedRMSD -1
REMARK  0 active torsions:
REMARK  status: ('A' for Active; 'I' for Inactive)
ROOT
ATOM      1  C2' OXE d   1       1.373  -2.662   1.315  0.00  0.00     0.078 C 
ATOM      2  C1' OXE d   1      -1.117  -1.963   2.406  0.00  0.00     0.078 C 
ATOM      3  C1  OXE d   1      -0.574  -1.109   1.287  0.00  0.00    -0.078 A 
ATOM      4  C2  OXE d   1       0.666  -1.431   0.791  0.00  0.00    -0.078 A 
ATOM      5  C3  OXE d   1       1.189  -0.709  -0.278  0.00  0.00     0.003 A 
ATOM      6  C4  OXE d   1       0.533   0.434  -0.750  0.00  0.00    -0.002 A 
ATOM      7  C5  OXE d   1      -0.713   0.803  -0.232  0.00  0.00    -0.002 A 
ATOM      8  C6  OXE d   1      -1.299   0.019   0.756  0.00  0.00     0.003 A 
ENDROOT
TORSDOF 0
ENDMDL
