MODEL 1
REMARK minimizedAffinity -5.25005198
REMARK minimizedRMSD -1
REMARK  0 active torsions:
REMARK  status: ('A' for Active; 'I' for Inactive)
ROOT
ATOM      1  C2' OXE d   1       1.983   0.473  -0.881  0.00  0.00     0.078 C 
ATOM      2  C1' OXE d   1      -0.703   0.818  -0.140  0.00  0.00     0.078 C 
ATOM      3  C1  OXE d   1       0.021  -0.397   0.384  0.00  0.00    -0.078 A 
ATOM      4  C2  OXE d   1       1.321  -0.583  -0.022  0.00  0.00    -0.078 A 
ATOM      5  C3  OXE d   1       2.052  -1.658   0.476  0.00  0.00     0.003 A 
ATOM      6  C4  OXE d   1       1.429  -2.635   1.262  0.00  0.00    -0.002 A 
ATOM      7  C5  OXE d   1       0.095  -2.486   1.654  0.00  0.00    -0.002 A 
ATOM      8  C6  OXE d   1      -0.609  -1.354   1.260  0.00  0.00     0.003 A 
ENDROOT
TORSDOF 0
ENDMDL
