MODEL 1
REMARK minimizedAffinity -4.99633121
REMARK minimizedRMSD -1
REMARK  0 active torsions:
REMARK  status: ('A' for Active; 'I' for Inactive)
ROOT
ATOM      1  C2' OXE d   1       0.963  -2.932   1.481  0.00  0.00     0.078 C 
ATOM      2  C1' OXE d   1      -1.504  -1.793   2.187  0.00  0.00     0.078 C 
ATOM      3  C1  OXE d   1      -0.651  -1.057   1.184  0.00  0.00    -0.078 A 
ATOM      4  C2  OXE d   1       0.575  -1.598   0.879  0.00  0.00    -0.078 A 
ATOM      5  C3  OXE d   1       1.378  -0.989  -0.081  0.00  0.00     0.003 A 
ATOM      6  C4  OXE d   1       1.017   0.249  -0.625  0.00  0.00    -0.002 A 
ATOM      7  C5  OXE d   1      -0.209   0.838  -0.298  0.00  0.00    -0.002 A 
ATOM      8  C6  OXE d   1      -1.072   0.178   0.570  0.00  0.00     0.003 A 
ENDROOT
TORSDOF 0
ENDMDL
