MODEL 1
REMARK minimizedAffinity -5.05581713
REMARK minimizedRMSD -1
REMARK  0 active torsions:
REMARK  status: ('A' for Active; 'I' for Inactive)
ROOT
ATOM      1  C2' OXE d   1      -0.346   0.400  -0.332  0.00  0.00     0.078 C 
ATOM      2  C1' OXE d   1       2.186  -0.515  -1.129  0.00  0.00     0.078 C 
ATOM      3  C1  OXE d   1       1.519  -1.212   0.031  0.00  0.00    -0.078 A 
ATOM      4  C2  OXE d   1       0.301  -0.727   0.444  0.00  0.00    -0.078 A 
ATOM      5  C3  OXE d   1      -0.382  -1.367   1.474  0.00  0.00     0.003 A 
ATOM      6  C4  OXE d   1       0.227  -2.402   2.193  0.00  0.00    -0.002 A 
ATOM      7  C5  OXE d   1       1.485  -2.885   1.815  0.00  0.00    -0.002 A 
ATOM      8  C6  OXE d   1       2.124  -2.330   0.712  0.00  0.00     0.003 A 
ENDROOT
TORSDOF 0
ENDMDL
