MODEL 1
REMARK minimizedAffinity -5.35046101
REMARK minimizedRMSD -1
REMARK  0 active torsions:
REMARK  status: ('A' for Active; 'I' for Inactive)
ROOT
ATOM      1  C2' OXE d   1       1.652   0.367  -0.511  0.00  0.00     0.078 C 
ATOM      2  C1' OXE d   1      -1.001   0.679   0.351  0.00  0.00     0.078 C 
ATOM      3  C1  OXE d   1      -0.226  -0.504   0.875  0.00  0.00    -0.078 A 
ATOM      4  C2  OXE d   1       1.056  -0.675   0.412  0.00  0.00    -0.078 A 
ATOM      5  C3  OXE d   1       1.834  -1.719   0.905  0.00  0.00     0.003 A 
ATOM      6  C4  OXE d   1       1.273  -2.683   1.751  0.00  0.00    -0.002 A 
ATOM      7  C5  OXE d   1      -0.044  -2.550   2.203  0.00  0.00    -0.002 A 
ATOM      8  C6  OXE d   1      -0.792  -1.446   1.810  0.00  0.00     0.003 A 
ENDROOT
TORSDOF 0
ENDMDL
