MODEL 1
REMARK minimizedAffinity -3.9505372
REMARK minimizedRMSD -1
REMARK  0 active torsions:
REMARK  status: ('A' for Active; 'I' for Inactive)
ROOT
ATOM      1  C2' OXE d   1      -1.244  -2.008   1.458  0.00  0.00     0.078 C 
ATOM      2  C1' OXE d   1       1.422  -2.755   0.991  0.00  0.00     0.078 C 
ATOM      3  C1  OXE d   1       0.966  -1.412   0.476  0.00  0.00    -0.078 A 
ATOM      4  C2  OXE d   1      -0.352  -1.075   0.668  0.00  0.00    -0.078 A 
ATOM      5  C3  OXE d   1      -0.810   0.174   0.260  0.00  0.00     0.003 A 
ATOM      6  C4  OXE d   1       0.018   1.027  -0.479  0.00  0.00    -0.002 A 
ATOM      7  C5  OXE d   1       1.354   0.686  -0.720  0.00  0.00    -0.002 A 
ATOM      8  C6  OXE d   1       1.854  -0.509  -0.214  0.00  0.00     0.003 A 
ENDROOT
TORSDOF 0
ENDMDL
