MODEL 1
REMARK minimizedAffinity -4.57534504
REMARK minimizedRMSD -1
REMARK  0 active torsions:
REMARK  status: ('A' for Active; 'I' for Inactive)
ROOT
ATOM      1  C2' OXE d   1      -0.794   0.764  -0.016  0.00  0.00     0.078 C 
ATOM      2  C1' OXE d   1       1.808   0.098  -0.834  0.00  0.00     0.078 C 
ATOM      3  C1  OXE d   1       1.129  -0.810   0.160  0.00  0.00    -0.078 A 
ATOM      4  C2  OXE d   1      -0.126  -0.451   0.590  0.00  0.00    -0.078 A 
ATOM      5  C3  OXE d   1      -0.819  -1.283   1.466  0.00  0.00     0.003 A 
ATOM      6  C4  OXE d   1      -0.190  -2.399   2.030  0.00  0.00    -0.002 A 
ATOM      7  C5  OXE d   1       1.103  -2.761   1.636  0.00  0.00    -0.002 A 
ATOM      8  C6  OXE d   1       1.758  -2.003   0.672  0.00  0.00     0.003 A 
ENDROOT
TORSDOF 0
ENDMDL
