MODEL 1
REMARK minimizedAffinity -4.83753014
REMARK minimizedRMSD -1
REMARK  0 active torsions:
REMARK  status: ('A' for Active; 'I' for Inactive)
ROOT
ATOM      1  C2' OXE d   1       2.032  -0.250  -0.912  0.00  0.00     0.078 C 
ATOM      2  C1' OXE d   1      -0.300   1.043  -0.032  0.00  0.00     0.078 C 
ATOM      3  C1  OXE d   1       0.081  -0.254   0.637  0.00  0.00    -0.078 A 
ATOM      4  C2  OXE d   1       1.198  -0.904   0.168  0.00  0.00    -0.078 A 
ATOM      5  C3  OXE d   1       1.624  -2.076   0.787  0.00  0.00     0.003 A 
ATOM      6  C4  OXE d   1       0.841  -2.679   1.778  0.00  0.00    -0.002 A 
ATOM      7  C5  OXE d   1      -0.322  -2.055   2.243  0.00  0.00    -0.002 A 
ATOM      8  C6  OXE d   1      -0.692  -0.823   1.713  0.00  0.00     0.003 A 
ENDROOT
TORSDOF 0
ENDMDL
