MODEL 1
REMARK minimizedAffinity -2.87649989
REMARK minimizedRMSD -1
REMARK  2 active torsions:
REMARK  status: ('A' for Active; 'I' for Inactive)
REMARK    1  A    between atoms: C1_2  and  C2_3 
REMARK    2  A    between atoms: C2_3  and  C3_4 
ROOT
ATOM      1  C3  UNL d   1      -0.648  -0.218  -0.196  0.00  0.00    -0.075 A 
ATOM      2  C4  UNL d   1       0.656   0.209   0.093  0.00  0.00     0.002 A 
ATOM      3  C5  UNL d   1       0.911   1.000   1.213  0.00  0.00     0.002 A 
ATOM      4  C6  UNL d   1      -0.133   1.382   2.052  0.00  0.00    -0.004 A 
ATOM      5  C7  UNL d   1      -1.435   0.977   1.766  0.00  0.00     0.002 A 
ATOM      6  C8  UNL d   1      -1.693   0.182   0.648  0.00  0.00     0.002 A 
ENDROOT
BRANCH   1   7
ATOM      7  C2  UNL d   1      -0.926  -1.098  -1.390  0.00  0.00     0.056 C 
BRANCH   7   8
ATOM      8  C1  UNL d   1      -0.321  -0.582  -2.700  0.00  0.00     0.007 C 
ATOM      9  C   UNL d   1      -1.137  -0.961  -3.929  0.00  0.00     0.009 C 
ENDBRANCH   7   8
ENDBRANCH   1   7
TORSDOF 2
ENDMDL
