MODEL 1
REMARK minimizedAffinity -4.69513512
REMARK minimizedRMSD -1
REMARK  2 active torsions:
REMARK  status: ('A' for Active; 'I' for Inactive)
REMARK    1  A    between atoms: C1_2  and  C2_3 
REMARK    2  A    between atoms: C2_3  and  C3_4 
ROOT
ATOM      1  C3  UNL d   1       0.369  -0.404  -3.402  0.00  0.00    -0.075 A 
ATOM      2  C4  UNL d   1       0.906   0.518  -4.313  0.00  0.00     0.002 A 
ATOM      3  C5  UNL d   1       0.293   0.732  -5.548  0.00  0.00     0.002 A 
ATOM      4  C6  UNL d   1      -0.854   0.022  -5.892  0.00  0.00    -0.004 A 
ATOM      5  C7  UNL d   1      -1.387  -0.908  -5.002  0.00  0.00     0.002 A 
ATOM      6  C8  UNL d   1      -0.779  -1.122  -3.764  0.00  0.00     0.002 A 
ENDROOT
BRANCH   1   7
ATOM      7  C2  UNL d   1       1.010  -0.619  -2.052  0.00  0.00     0.056 C 
BRANCH   7   8
ATOM      8  C1  UNL d   1       0.008  -0.825  -0.912  0.00  0.00     0.007 C 
ATOM      9  C   UNL d   1       0.371  -0.056   0.352  0.00  0.00     0.009 C 
ENDBRANCH   7   8
ENDBRANCH   1   7
TORSDOF 2
ENDMDL
