MODEL 1
REMARK minimizedAffinity -5.05166531
REMARK minimizedRMSD -1
REMARK  2 active torsions:
REMARK  status: ('A' for Active; 'I' for Inactive)
REMARK    1  A    between atoms: C1_2  and  C2_3 
REMARK    2  A    between atoms: C2_3  and  C3_4 
ROOT
ATOM      1  C3  UNL d   1       0.636  -0.124  -1.248  0.00  0.00    -0.075 A 
ATOM      2  C4  UNL d   1       1.556   0.823  -1.720  0.00  0.00     0.002 A 
ATOM      3  C5  UNL d   1       1.897   0.866  -3.073  0.00  0.00     0.002 A 
ATOM      4  C6  UNL d   1       1.331  -0.041  -3.966  0.00  0.00    -0.004 A 
ATOM      5  C7  UNL d   1       0.428  -0.997  -3.505  0.00  0.00     0.002 A 
ATOM      6  C8  UNL d   1       0.082  -1.040  -2.153  0.00  0.00     0.002 A 
ENDROOT
BRANCH   1   7
ATOM      7  C2  UNL d   1       0.240  -0.157   0.209  0.00  0.00     0.056 C 
BRANCH   7   8
ATOM      8  C1  UNL d   1      -1.192   0.317   0.478  0.00  0.00     0.007 C 
ATOM      9  C   UNL d   1      -1.449   0.651   1.941  0.00  0.00     0.009 C 
ENDBRANCH   7   8
ENDBRANCH   1   7
TORSDOF 2
ENDMDL
