MODEL 1
REMARK minimizedAffinity -3.63113117
REMARK minimizedRMSD -1
REMARK  2 active torsions:
REMARK  status: ('A' for Active; 'I' for Inactive)
REMARK    1  A    between atoms: C1_2  and  C2_3 
REMARK    2  A    between atoms: C2_3  and  C3_4 
ROOT
ATOM      1  C3  UNL d   1       0.907  -0.342  -2.336  0.00  0.00    -0.075 A 
ATOM      2  C4  UNL d   1       2.165   0.196  -2.641  0.00  0.00     0.002 A 
ATOM      3  C5  UNL d   1       2.330   1.027  -3.750  0.00  0.00     0.002 A 
ATOM      4  C6  UNL d   1       1.245   1.322  -4.571  0.00  0.00    -0.004 A 
ATOM      5  C7  UNL d   1      -0.007   0.780  -4.287  0.00  0.00     0.002 A 
ATOM      6  C8  UNL d   1      -0.176  -0.049  -3.176  0.00  0.00     0.002 A 
ENDROOT
BRANCH   1   7
ATOM      7  C2  UNL d   1       0.715  -1.218  -1.121  0.00  0.00     0.056 C 
BRANCH   7   8
ATOM      8  C1  UNL d   1       0.543  -0.440   0.188  0.00  0.00     0.007 C 
ATOM      9  C   UNL d   1      -0.741   0.378   0.236  0.00  0.00     0.009 C 
ENDBRANCH   7   8
ENDBRANCH   1   7
TORSDOF 2
ENDMDL
