MODEL 1
REMARK minimizedAffinity -3.44380212
REMARK minimizedRMSD -1
REMARK  2 active torsions:
REMARK  status: ('A' for Active; 'I' for Inactive)
REMARK    1  A    between atoms: C1_2  and  C2_3 
REMARK    2  A    between atoms: C2_3  and  C3_4 
ROOT
ATOM      1  C3  UNL d   1       0.532  -0.221  -2.386  0.00  0.00    -0.075 A 
ATOM      2  C4  UNL d   1       1.835   0.130  -2.771  0.00  0.00     0.002 A 
ATOM      3  C5  UNL d   1       2.071   0.727  -4.009  0.00  0.00     0.002 A 
ATOM      4  C6  UNL d   1       1.012   0.971  -4.881  0.00  0.00    -0.004 A 
ATOM      5  C7  UNL d   1      -0.283   0.612  -4.516  0.00  0.00     0.002 A 
ATOM      6  C8  UNL d   1      -0.523   0.019  -3.276  0.00  0.00     0.002 A 
ENDROOT
BRANCH   1   7
ATOM      7  C2  UNL d   1       0.266  -0.840  -1.035  0.00  0.00     0.056 C 
BRANCH   7   8
ATOM      8  C1  UNL d   1      -0.718  -0.047  -0.168  0.00  0.00     0.007 C 
ATOM      9  C   UNL d   1      -0.127   0.387   1.167  0.00  0.00     0.009 C 
ENDBRANCH   7   8
ENDBRANCH   1   7
TORSDOF 2
ENDMDL
