MODEL 1
REMARK minimizedAffinity -1.07384241
REMARK minimizedRMSD -1
REMARK  2 active torsions:
REMARK  status: ('A' for Active; 'I' for Inactive)
REMARK    1  A    between atoms: C1_2  and  C2_3 
REMARK    2  A    between atoms: C2_3  and  C3_4 
ROOT
ATOM      1  C3  UNL d   1       0.410   0.556   0.141  0.00  0.00    -0.075 A 
ATOM      2  C4  UNL d   1      -0.620  -0.232   0.676  0.00  0.00     0.002 A 
ATOM      3  C5  UNL d   1      -1.187   0.086   1.910  0.00  0.00     0.002 A 
ATOM      4  C6  UNL d   1      -0.727   1.186   2.629  0.00  0.00    -0.004 A 
ATOM      5  C7  UNL d   1       0.307   1.967   2.116  0.00  0.00     0.002 A 
ATOM      6  C8  UNL d   1       0.874   1.654   0.879  0.00  0.00     0.002 A 
ENDROOT
BRANCH   1   7
ATOM      7  C2  UNL d   1       1.009   0.235  -1.207  0.00  0.00     0.056 C 
BRANCH   7   8
ATOM      8  C1  UNL d   1       0.118  -0.644  -2.091  0.00  0.00     0.007 C 
ATOM      9  C   UNL d   1       0.091  -0.200  -3.548  0.00  0.00     0.009 C 
ENDBRANCH   7   8
ENDBRANCH   1   7
TORSDOF 2
ENDMDL
