MODEL 1
REMARK minimizedAffinity -5.53219604
REMARK minimizedRMSD -1
REMARK  2 active torsions:
REMARK  status: ('A' for Active; 'I' for Inactive)
REMARK    1  A    between atoms: C1_2  and  C2_3 
REMARK    2  A    between atoms: C2_3  and  C3_4 
ROOT
ATOM      1  C3  UNL d   1       0.221  -0.163  -2.750  0.00  0.00    -0.075 A 
ATOM      2  C4  UNL d   1       1.452   0.414  -3.096  0.00  0.00     0.002 A 
ATOM      3  C5  UNL d   1       1.602   1.088  -4.308  0.00  0.00     0.002 A 
ATOM      4  C6  UNL d   1       0.530   1.185  -5.193  0.00  0.00    -0.004 A 
ATOM      5  C7  UNL d   1      -0.692   0.601  -4.867  0.00  0.00     0.002 A 
ATOM      6  C8  UNL d   1      -0.847  -0.070  -3.652  0.00  0.00     0.002 A 
ENDROOT
BRANCH   1   7
ATOM      7  C2  UNL d   1       0.043  -0.868  -1.426  0.00  0.00     0.056 C 
BRANCH   7   8
ATOM      8  C1  UNL d   1       0.550  -0.069  -0.221  0.00  0.00     0.007 C 
ATOM      9  C   UNL d   1      -0.547   0.265   0.782  0.00  0.00     0.009 C 
ENDBRANCH   7   8
ENDBRANCH   1   7
TORSDOF 2
ENDMDL
