MODEL 1
REMARK minimizedAffinity -3.85732722
REMARK minimizedRMSD -1
REMARK  0 active torsions:
REMARK  status: ('A' for Active; 'I' for Inactive)
ROOT
ATOM      1  C   UNL d   1       1.030   0.206   1.100  0.00  0.00     0.172 C 
ATOM      2  N   UNL d   1      -0.344   0.021   1.503  0.00  0.00    -0.070 N 
ATOM      3  C1  UNL d   1      -1.429   0.022   0.667  0.00  0.00    -0.004 A 
ATOM      4  C2  UNL d   1      -2.554  -0.186   1.434  0.00  0.00    -0.047 A 
ATOM      5  C3  UNL d   1      -2.131  -0.316   2.779  0.00  0.00    -0.047 A 
ATOM      6  C4  UNL d   1      -0.759  -0.184   2.792  0.00  0.00    -0.004 A 
ENDROOT
TORSDOF 0
ENDMDL
