MODEL 1
REMARK minimizedAffinity -3.20255995
REMARK minimizedRMSD -1
REMARK  0 active torsions:
REMARK  status: ('A' for Active; 'I' for Inactive)
ROOT
ATOM      1  C   UNL d   1      -0.156   0.465  -0.897  0.00  0.00     0.172 C 
ATOM      2  N   UNL d   1      -0.069   0.452   0.545  0.00  0.00    -0.070 N 
ATOM      3  C1  UNL d   1       0.990   0.905   1.285  0.00  0.00    -0.004 A 
ATOM      4  C2  UNL d   1       0.685   0.719   2.616  0.00  0.00    -0.047 A 
ATOM      5  C3  UNL d   1      -0.603   0.134   2.678  0.00  0.00    -0.047 A 
ATOM      6  C4  UNL d   1      -1.046  -0.020   1.381  0.00  0.00    -0.004 A 
ENDROOT
TORSDOF 0
ENDMDL
