MODEL 1
REMARK minimizedAffinity 1.08902049
REMARK minimizedRMSD -1
REMARK  0 active torsions:
REMARK  status: ('A' for Active; 'I' for Inactive)
ROOT
ATOM      1  C   UNL d   1      -0.233   0.157   3.616  0.00  0.00     0.172 C 
ATOM      2  N   UNL d   1       0.520   0.395   2.407  0.00  0.00    -0.070 N 
ATOM      3  C1  UNL d   1       0.444  -0.349   1.259  0.00  0.00    -0.004 A 
ATOM      4  C2  UNL d   1       1.314   0.200   0.342  0.00  0.00    -0.047 A 
ATOM      5  C3  UNL d   1       1.934   1.312   0.960  0.00  0.00    -0.047 A 
ATOM      6  C4  UNL d   1       1.425   1.410   2.237  0.00  0.00    -0.004 A 
ENDROOT
TORSDOF 0
ENDMDL
