MODEL 1
REMARK minimizedAffinity -2.41091657
REMARK minimizedRMSD -1
REMARK  0 active torsions:
REMARK  status: ('A' for Active; 'I' for Inactive)
ROOT
ATOM      1  C   UNL d   1      -1.498  -0.830   1.338  0.00  0.00     0.172 C 
ATOM      2  N   UNL d   1      -0.466  -0.176   0.568  0.00  0.00    -0.070 N 
ATOM      3  C1  UNL d   1      -0.548   0.154  -0.758  0.00  0.00    -0.004 A 
ATOM      4  C2  UNL d   1       0.637   0.760  -1.116  0.00  0.00    -0.047 A 
ATOM      5  C3  UNL d   1       1.460   0.795   0.035  0.00  0.00    -0.047 A 
ATOM      6  C4  UNL d   1       0.752   0.208   1.063  0.00  0.00    -0.004 A 
ENDROOT
TORSDOF 0
ENDMDL
