MODEL 1
REMARK minimizedAffinity -4.09371042
REMARK minimizedRMSD -1
REMARK  0 active torsions:
REMARK  status: ('A' for Active; 'I' for Inactive)
ROOT
ATOM      1  C   UNL d   1      -0.939   0.402  -0.534  0.00  0.00     0.172 C 
ATOM      2  N   UNL d   1      -0.796   0.028   0.853  0.00  0.00    -0.070 N 
ATOM      3  C1  UNL d   1      -1.779  -0.512   1.640  0.00  0.00    -0.004 A 
ATOM      4  C2  UNL d   1      -1.246  -0.726   2.893  0.00  0.00    -0.047 A 
ATOM      5  C3  UNL d   1       0.103  -0.299   2.858  0.00  0.00    -0.047 A 
ATOM      6  C4  UNL d   1       0.355   0.163   1.584  0.00  0.00    -0.004 A 
ENDROOT
TORSDOF 0
ENDMDL
