MODEL 1
REMARK minimizedAffinity -3.79043055
REMARK minimizedRMSD -1
REMARK  0 active torsions:
REMARK  status: ('A' for Active; 'I' for Inactive)
ROOT
ATOM      1  C   UNL d   1       0.374   0.357  -0.829  0.00  0.00     0.172 C 
ATOM      2  N   UNL d   1       0.153   0.229   0.592  0.00  0.00    -0.070 N 
ATOM      3  C1  UNL d   1      -0.996  -0.224   1.184  0.00  0.00    -0.004 A 
ATOM      4  C2  UNL d   1      -0.807  -0.196   2.549  0.00  0.00    -0.047 A 
ATOM      5  C3  UNL d   1       0.500   0.293   2.786  0.00  0.00    -0.047 A 
ATOM      6  C4  UNL d   1       1.072   0.548   1.557  0.00  0.00    -0.004 A 
ENDROOT
TORSDOF 0
ENDMDL
