MODEL 1
REMARK minimizedAffinity -3.733284
REMARK minimizedRMSD -1
REMARK  0 active torsions:
REMARK  status: ('A' for Active; 'I' for Inactive)
ROOT
ATOM      1  C   UNL d   1       1.094   0.733   0.893  0.00  0.00     0.172 C 
ATOM      2  N   UNL d   1       0.049   0.204   1.737  0.00  0.00    -0.070 N 
ATOM      3  C1  UNL d   1       0.086   0.132   3.104  0.00  0.00    -0.004 A 
ATOM      4  C2  UNL d   1      -1.098  -0.432   3.529  0.00  0.00    -0.047 A 
ATOM      5  C3  UNL d   1      -1.872  -0.710   2.378  0.00  0.00    -0.047 A 
ATOM      6  C4  UNL d   1      -1.139  -0.306   1.282  0.00  0.00    -0.004 A 
ENDROOT
TORSDOF 0
ENDMDL
