MODEL 1
REMARK minimizedAffinity -3.91655087
REMARK minimizedRMSD -1
REMARK  0 active torsions:
REMARK  status: ('A' for Active; 'I' for Inactive)
ROOT
ATOM      1  C   UNL d   1      -0.245   0.778  -0.529  0.00  0.00     0.172 C 
ATOM      2  N   UNL d   1      -0.399   0.155   0.765  0.00  0.00    -0.070 N 
ATOM      3  C1  UNL d   1      -1.547  -0.415   1.246  0.00  0.00    -0.004 A 
ATOM      4  C2  UNL d   1      -1.283  -0.895   2.510  0.00  0.00    -0.047 A 
ATOM      5  C3  UNL d   1       0.071  -0.604   2.799  0.00  0.00    -0.047 A 
ATOM      6  C4  UNL d   1       0.595   0.046   1.702  0.00  0.00    -0.004 A 
ENDROOT
TORSDOF 0
ENDMDL
