MODEL 1
REMARK minimizedAffinity -3.83761692
REMARK minimizedRMSD -1
REMARK  0 active torsions:
REMARK  status: ('A' for Active; 'I' for Inactive)
ROOT
ATOM      1  C   UNL d   1       0.073   0.428  -0.880  0.00  0.00     0.172 C 
ATOM      2  N   UNL d   1       0.025   0.165   0.539  0.00  0.00    -0.070 N 
ATOM      3  C1  UNL d   1      -0.971  -0.509   1.193  0.00  0.00    -0.004 A 
ATOM      4  C2  UNL d   1      -0.647  -0.548   2.532  0.00  0.00    -0.047 A 
ATOM      5  C3  UNL d   1       0.587   0.127   2.688  0.00  0.00    -0.047 A 
ATOM      6  C4  UNL d   1       0.980   0.558   1.439  0.00  0.00    -0.004 A 
ENDROOT
TORSDOF 0
ENDMDL
