MODEL 1
REMARK minimizedAffinity -4.27392817
REMARK minimizedRMSD -1
REMARK  0 active torsions:
REMARK  status: ('A' for Active; 'I' for Inactive)
ROOT
ATOM      1  C   UNL d   1      -0.807   0.322  -0.496  0.00  0.00     0.172 C 
ATOM      2  N   UNL d   1      -1.080   0.127   0.909  0.00  0.00    -0.070 N 
ATOM      3  C1  UNL d   1      -0.160  -0.225   1.860  0.00  0.00    -0.004 A 
ATOM      4  C2  UNL d   1      -0.814  -0.310   3.070  0.00  0.00    -0.047 A 
ATOM      5  C3  UNL d   1      -2.175   0.002   2.838  0.00  0.00    -0.047 A 
ATOM      6  C4  UNL d   1      -2.312   0.268   1.492  0.00  0.00    -0.004 A 
ENDROOT
TORSDOF 0
ENDMDL
