MODEL 1
REMARK minimizedAffinity -3.8864665
REMARK minimizedRMSD -1
REMARK  0 active torsions:
REMARK  status: ('A' for Active; 'I' for Inactive)
ROOT
ATOM      1  C   UNL d   1      -0.182   0.241  -0.855  0.00  0.00     0.172 C 
ATOM      2  N   UNL d   1      -0.172   0.164   0.587  0.00  0.00    -0.070 N 
ATOM      3  C1  UNL d   1      -1.238  -0.180   1.375  0.00  0.00    -0.004 A 
ATOM      4  C2  UNL d   1      -0.823  -0.138   2.688  0.00  0.00    -0.047 A 
ATOM      5  C3  UNL d   1       0.539   0.246   2.690  0.00  0.00    -0.047 A 
ATOM      6  C4  UNL d   1       0.916   0.426   1.375  0.00  0.00    -0.004 A 
ENDROOT
TORSDOF 0
ENDMDL
