MODEL 1
REMARK minimizedAffinity -3.34789252
REMARK minimizedRMSD -1
REMARK  0 active torsions:
REMARK  status: ('A' for Active; 'I' for Inactive)
ROOT
ATOM      1  C   UNL d   1      -0.034   0.766  -1.324  0.00  0.00     0.172 C 
ATOM      2  N   UNL d   1      -0.064   0.440   0.082  0.00  0.00    -0.070 N 
ATOM      3  C1  UNL d   1       0.923   0.720   0.988  0.00  0.00    -0.004 A 
ATOM      4  C2  UNL d   1       0.515   0.249   2.217  0.00  0.00    -0.047 A 
ATOM      5  C3  UNL d   1      -0.761  -0.337   2.043  0.00  0.00    -0.047 A 
ATOM      6  C4  UNL d   1      -1.096  -0.205   0.712  0.00  0.00    -0.004 A 
ENDROOT
TORSDOF 0
ENDMDL
