MODEL 1
REMARK minimizedAffinity -3.22447395
REMARK minimizedRMSD -1
REMARK  0 active torsions:
REMARK  status: ('A' for Active; 'I' for Inactive)
ROOT
ATOM      1  C   UNL d   1       1.420   1.172   0.721  0.00  0.00     0.172 C 
ATOM      2  N   UNL d   1       0.213   0.452   1.053  0.00  0.00    -0.070 N 
ATOM      3  C1  UNL d   1      -0.836   0.219   0.205  0.00  0.00    -0.004 A 
ATOM      4  C2  UNL d   1      -1.787  -0.498   0.898  0.00  0.00    -0.047 A 
ATOM      5  C3  UNL d   1      -1.293  -0.703   2.208  0.00  0.00    -0.047 A 
ATOM      6  C4  UNL d   1      -0.053  -0.104   2.277  0.00  0.00    -0.004 A 
ENDROOT
TORSDOF 0
ENDMDL
