MODEL 1
REMARK minimizedAffinity -5.26535034
REMARK minimizedRMSD -1
REMARK  0 active torsions:
REMARK  status: ('A' for Active; 'I' for Inactive)
ROOT
ATOM      1  C   UNL d   1       3.400  -0.999   0.403  0.00  0.00     0.023 A 
ATOM      2  C1  UNL d   1       3.079   0.291   0.826  0.00  0.00     0.003 A 
ATOM      3  C2  UNL d   1       1.758   0.740   0.763  0.00  0.00     0.048 A 
ATOM      4  C3  UNL d   1       0.763  -0.106   0.275  0.00  0.00     0.023 A 
ATOM      5  C4  UNL d   1       1.079  -1.398  -0.149  0.00  0.00     0.048 A 
ATOM      6  C5  UNL d   1       2.401  -1.842  -0.084  0.00  0.00     0.003 A 
ATOM      7  I   UNL d   1      -1.203   0.560   0.180  0.00  0.00    -0.146 I 
ENDROOT
TORSDOF 0
ENDMDL
