MODEL 1
REMARK minimizedAffinity -4.4955101
REMARK minimizedRMSD -1
REMARK  0 active torsions:
REMARK  status: ('A' for Active; 'I' for Inactive)
ROOT
ATOM      1  C   UNL d   1       3.959  -0.532   0.898  0.00  0.00     0.023 A 
ATOM      2  C1  UNL d   1       3.089  -1.481   0.359  0.00  0.00     0.003 A 
ATOM      3  C2  UNL d   1       1.742  -1.166   0.169  0.00  0.00     0.048 A 
ATOM      4  C3  UNL d   1       1.271   0.099   0.519  0.00  0.00     0.023 A 
ATOM      5  C4  UNL d   1       2.138   1.051   1.057  0.00  0.00     0.048 A 
ATOM      6  C5  UNL d   1       3.484   0.732   1.246  0.00  0.00     0.003 A 
ATOM      7  I   UNL d   1      -0.733   0.569   0.236  0.00  0.00    -0.146 I 
ENDROOT
TORSDOF 0
ENDMDL
