MODEL 1
REMARK minimizedAffinity -2.77762842
REMARK minimizedRMSD -1
REMARK  0 active torsions:
REMARK  status: ('A' for Active; 'I' for Inactive)
ROOT
ATOM      1  C   UNL d   1      -1.763   1.098  -0.368  0.00  0.00     0.023 A 
ATOM      2  C1  UNL d   1      -0.827   2.123  -0.504  0.00  0.00     0.003 A 
ATOM      3  C2  UNL d   1       0.486   1.934  -0.068  0.00  0.00     0.048 A 
ATOM      4  C3  UNL d   1       0.856   0.717   0.503  0.00  0.00     0.023 A 
ATOM      5  C4  UNL d   1      -0.077  -0.312   0.641  0.00  0.00     0.048 A 
ATOM      6  C5  UNL d   1      -1.389  -0.118   0.204  0.00  0.00     0.003 A 
ATOM      7  I   UNL d   1       2.810   0.433   1.153  0.00  0.00    -0.146 I 
ENDROOT
TORSDOF 0
ENDMDL
