MODEL 1
REMARK minimizedAffinity -3.1132524
REMARK minimizedRMSD -1
REMARK  0 active torsions:
REMARK  status: ('A' for Active; 'I' for Inactive)
ROOT
ATOM      1  C   UNL d   1       0.034   2.099  -0.487  0.00  0.00     0.023 A 
ATOM      2  C1  UNL d   1      -0.373   0.766  -0.552  0.00  0.00     0.003 A 
ATOM      3  C2  UNL d   1       0.503  -0.252  -0.172  0.00  0.00     0.048 A 
ATOM      4  C3  UNL d   1       1.785   0.069   0.273  0.00  0.00     0.023 A 
ATOM      5  C4  UNL d   1       2.197   1.401   0.340  0.00  0.00     0.048 A 
ATOM      6  C5  UNL d   1       1.318   2.416  -0.042  0.00  0.00     0.003 A 
ATOM      7  I   UNL d   1       3.092  -1.445   0.839  0.00  0.00    -0.146 I 
ENDROOT
TORSDOF 0
ENDMDL
