MODEL 1
REMARK minimizedAffinity -4.05857515
REMARK minimizedRMSD -1
REMARK  0 active torsions:
REMARK  status: ('A' for Active; 'I' for Inactive)
ROOT
ATOM      1  C   UNL d   1       2.123  -1.349   0.194  0.00  0.00     0.023 A 
ATOM      2  C1  UNL d   1       0.966  -2.076  -0.086  0.00  0.00     0.003 A 
ATOM      3  C2  UNL d   1      -0.282  -1.452  -0.037  0.00  0.00     0.048 A 
ATOM      4  C3  UNL d   1      -0.365  -0.099   0.292  0.00  0.00     0.023 A 
ATOM      5  C4  UNL d   1       0.790   0.633   0.572  0.00  0.00     0.048 A 
ATOM      6  C5  UNL d   1       2.035   0.004   0.523  0.00  0.00     0.003 A 
ATOM      7  I   UNL d   1      -2.222   0.833   0.366  0.00  0.00    -0.146 I 
ENDROOT
TORSDOF 0
ENDMDL
