MODEL 1
REMARK minimizedAffinity -5.07748461
REMARK minimizedRMSD -1
REMARK  0 active torsions:
REMARK  status: ('A' for Active; 'I' for Inactive)
ROOT
ATOM      1  C   UNL d   1       2.701  -0.796   0.421  0.00  0.00     0.023 A 
ATOM      2  C1  UNL d   1       1.657  -1.705   0.250  0.00  0.00     0.003 A 
ATOM      3  C2  UNL d   1       0.338  -1.251   0.184  0.00  0.00     0.048 A 
ATOM      4  C3  UNL d   1       0.070   0.114   0.288  0.00  0.00     0.023 A 
ATOM      5  C4  UNL d   1       1.112   1.027   0.458  0.00  0.00     0.048 A 
ATOM      6  C5  UNL d   1       2.429   0.568   0.525  0.00  0.00     0.003 A 
ATOM      7  I   UNL d   1      -1.892   0.792   0.189  0.00  0.00    -0.146 I 
ENDROOT
TORSDOF 0
ENDMDL
