MODEL 1
REMARK minimizedAffinity -4.82742977
REMARK minimizedRMSD -1
REMARK  0 active torsions:
REMARK  status: ('A' for Active; 'I' for Inactive)
ROOT
ATOM      1  C   UNL d   1       3.780  -0.424   0.561  0.00  0.00     0.023 A 
ATOM      2  C1  UNL d   1       2.879  -1.473   0.386  0.00  0.00     0.003 A 
ATOM      3  C2  UNL d   1       1.557  -1.207   0.024  0.00  0.00     0.048 A 
ATOM      4  C3  UNL d   1       1.143   0.112  -0.163  0.00  0.00     0.023 A 
ATOM      5  C4  UNL d   1       2.043   1.165   0.010  0.00  0.00     0.048 A 
ATOM      6  C5  UNL d   1       3.363   0.894   0.373  0.00  0.00     0.003 A 
ATOM      7  I   UNL d   1      -0.823   0.511  -0.703  0.00  0.00    -0.146 I 
ENDROOT
TORSDOF 0
ENDMDL
