MODEL 1
REMARK minimizedAffinity -3.76240087
REMARK minimizedRMSD -1
REMARK  0 active torsions:
REMARK  status: ('A' for Active; 'I' for Inactive)
ROOT
ATOM      1  C   UNL d   1       2.890  -0.726  -0.330  0.00  0.00     0.023 A 
ATOM      2  C1  UNL d   1       2.529   0.503   0.221  0.00  0.00     0.003 A 
ATOM      3  C2  UNL d   1       1.181   0.838   0.361  0.00  0.00     0.048 A 
ATOM      4  C3  UNL d   1       0.199  -0.062  -0.051  0.00  0.00     0.023 A 
ATOM      5  C4  UNL d   1       0.555  -1.294  -0.602  0.00  0.00     0.048 A 
ATOM      6  C5  UNL d   1       1.904  -1.624  -0.741  0.00  0.00     0.003 A 
ATOM      7  I   UNL d   1      -1.809   0.434   0.157  0.00  0.00    -0.146 I 
ENDROOT
TORSDOF 0
ENDMDL
