MODEL 1
REMARK minimizedAffinity -2.17276502
REMARK minimizedRMSD -1
REMARK  0 active torsions:
REMARK  status: ('A' for Active; 'I' for Inactive)
ROOT
ATOM      1  C   UNL d   1       2.398  -1.705   0.002  0.00  0.00     0.023 A 
ATOM      2  C1  UNL d   1       2.203  -0.579   0.801  0.00  0.00     0.003 A 
ATOM      3  C2  UNL d   1       0.966   0.070   0.806  0.00  0.00     0.048 A 
ATOM      4  C3  UNL d   1      -0.071  -0.415   0.010  0.00  0.00     0.023 A 
ATOM      5  C4  UNL d   1       0.119  -1.542  -0.790  0.00  0.00     0.048 A 
ATOM      6  C5  UNL d   1       1.358  -2.186  -0.793  0.00  0.00     0.003 A 
ATOM      7  I   UNL d   1      -1.913   0.548   0.016  0.00  0.00    -0.146 I 
ENDROOT
TORSDOF 0
ENDMDL
