MODEL 1
REMARK minimizedAffinity -5.20450068
REMARK minimizedRMSD -1
REMARK  2 active torsions:
REMARK  status: ('A' for Active; 'I' for Inactive)
REMARK    1  A    between atoms: C2'_3  and  C1'_4 
REMARK    2  A    between atoms: C1'_4  and  C1_5 
ROOT
ATOM      1  C1  I4B d   1       0.063  -0.238   0.124  0.00  0.00    -0.075 A 
ATOM      2  C2  I4B d   1      -1.307  -0.178   0.052  0.00  0.00     0.003 A 
ATOM      3  C3  I4B d   1      -2.057   0.316   1.147  0.00  0.00     0.002 A 
ATOM      4  C4  I4B d   1      -1.405   0.690   2.304  0.00  0.00    -0.004 A 
ATOM      5  C5  I4B d   1      -0.015   0.650   2.367  0.00  0.00     0.002 A 
ATOM      6  C6  I4B d   1       0.725   0.195   1.265  0.00  0.00     0.003 A 
ENDROOT
BRANCH   1   7
ATOM      7  C1' I4B d   1       0.822  -0.795  -1.038  0.00  0.00     0.060 C 
BRANCH   7   8
ATOM      8  C2' I4B d   1       0.617   0.133  -2.218  0.00  0.00    -0.013 C 
ATOM      9  C4' I4B d   1       1.917   0.753  -2.656  0.00  0.00     0.013 C 
ATOM     10  C3' I4B d   1      -0.005  -0.661  -3.329  0.00  0.00     0.013 C 
ENDBRANCH   7   8
ENDBRANCH   1   7
TORSDOF 2
ENDMDL
