MODEL 1
REMARK minimizedAffinity -5.69843864
REMARK minimizedRMSD -1
REMARK  2 active torsions:
REMARK  status: ('A' for Active; 'I' for Inactive)
REMARK    1  A    between atoms: C2'_3  and  C1'_4 
REMARK    2  A    between atoms: C1'_4  and  C1_5 
ROOT
ATOM      1  C1  I4B d   1      -0.006  -0.051   0.087  0.00  0.00    -0.075 A 
ATOM      2  C2  I4B d   1      -1.355   0.187   0.159  0.00  0.00     0.003 A 
ATOM      3  C3  I4B d   1      -1.904   0.841   1.289  0.00  0.00     0.002 A 
ATOM      4  C4  I4B d   1      -1.079   1.191   2.339  0.00  0.00    -0.004 A 
ATOM      5  C5  I4B d   1       0.292   0.969   2.254  0.00  0.00     0.002 A 
ATOM      6  C6  I4B d   1       0.835   0.355   1.115  0.00  0.00     0.003 A 
ENDROOT
BRANCH   1   7
ATOM      7  C1' I4B d   1       0.536  -0.773  -1.107  0.00  0.00     0.060 C 
BRANCH   7   8
ATOM      8  C2' I4B d   1       0.559   0.199  -2.269  0.00  0.00    -0.013 C 
ATOM      9  C4' I4B d   1       1.939   0.764  -2.479  0.00  0.00     0.013 C 
ATOM     10  C3' I4B d   1       0.080  -0.528  -3.490  0.00  0.00     0.013 C 
ENDBRANCH   7   8
ENDBRANCH   1   7
TORSDOF 2
ENDMDL
