MODEL 1
REMARK minimizedAffinity -3.52331543
REMARK minimizedRMSD -1
REMARK  2 active torsions:
REMARK  status: ('A' for Active; 'I' for Inactive)
REMARK    1  A    between atoms: C2'_3  and  C1'_4 
REMARK    2  A    between atoms: C1'_4  and  C1_5 
ROOT
ATOM      1  C1  I4B d   1      -0.909   0.496   0.635  0.00  0.00    -0.075 A 
ATOM      2  C2  I4B d   1      -1.981   0.061   1.374  0.00  0.00     0.003 A 
ATOM      3  C3  I4B d   1      -2.157   0.507   2.706  0.00  0.00     0.002 A 
ATOM      4  C4  I4B d   1      -1.216   1.342   3.273  0.00  0.00    -0.004 A 
ATOM      5  C5  I4B d   1      -0.142   1.800   2.516  0.00  0.00     0.002 A 
ATOM      6  C6  I4B d   1       0.006   1.385   1.184  0.00  0.00     0.003 A 
ENDROOT
BRANCH   1   7
ATOM      7  C1' I4B d   1      -0.736  -0.020  -0.758  0.00  0.00     0.060 C 
BRANCH   7   8
ATOM      8  C2' I4B d   1       0.744  -0.006  -1.081  0.00  0.00    -0.013 C 
ATOM      9  C4' I4B d   1       1.429  -1.238  -0.552  0.00  0.00     0.013 C 
ATOM     10  C3' I4B d   1       0.892   0.100  -2.569  0.00  0.00     0.013 C 
ENDBRANCH   7   8
ENDBRANCH   1   7
TORSDOF 2
ENDMDL
