MODEL 1
REMARK minimizedAffinity -4.76425695
REMARK minimizedRMSD -1
REMARK  2 active torsions:
REMARK  status: ('A' for Active; 'I' for Inactive)
REMARK    1  A    between atoms: C2'_3  and  C1'_4 
REMARK    2  A    between atoms: C1'_4  and  C1_5 
ROOT
ATOM      1  C1  I4B d   1      -0.157  -0.221  -0.355  0.00  0.00    -0.075 A 
ATOM      2  C2  I4B d   1       0.368   0.309   0.797  0.00  0.00     0.003 A 
ATOM      3  C3  I4B d   1      -0.490   0.765   1.827  0.00  0.00     0.002 A 
ATOM      4  C4  I4B d   1      -1.857   0.720   1.643  0.00  0.00    -0.004 A 
ATOM      5  C5  I4B d   1      -2.387   0.160   0.484  0.00  0.00     0.002 A 
ATOM      6  C6  I4B d   1      -1.532  -0.325  -0.517  0.00  0.00     0.003 A 
ENDROOT
BRANCH   1   7
ATOM      7  C1' I4B d   1       0.778  -0.664  -1.436  0.00  0.00     0.060 C 
BRANCH   7   8
ATOM      8  C2' I4B d   1       0.474   0.150  -2.678  0.00  0.00    -0.013 C 
ATOM      9  C4' I4B d   1       1.598   1.101  -2.995  0.00  0.00     0.013 C 
ATOM     10  C3' I4B d   1       0.237  -0.804  -3.810  0.00  0.00     0.013 C 
ENDBRANCH   7   8
ENDBRANCH   1   7
TORSDOF 2
ENDMDL
