MODEL 1
REMARK minimizedAffinity -1.81782424
REMARK minimizedRMSD -1
REMARK  2 active torsions:
REMARK  status: ('A' for Active; 'I' for Inactive)
REMARK    1  A    between atoms: C2'_3  and  C1'_4 
REMARK    2  A    between atoms: C1'_4  and  C1_5 
ROOT
ATOM      1  C1  I4B d   1       0.329   0.517   0.044  0.00  0.00    -0.075 A 
ATOM      2  C2  I4B d   1      -0.789   1.232   0.397  0.00  0.00     0.003 A 
ATOM      3  C3  I4B d   1      -1.025   1.561   1.754  0.00  0.00     0.002 A 
ATOM      4  C4  I4B d   1      -0.150   1.115   2.724  0.00  0.00    -0.004 A 
ATOM      5  C5  I4B d   1       0.994   0.410   2.361  0.00  0.00     0.002 A 
ATOM      6  C6  I4B d   1       1.242   0.120   1.012  0.00  0.00     0.003 A 
ENDROOT
BRANCH   1   7
ATOM      7  C1' I4B d   1       0.530   0.159  -1.394  0.00  0.00     0.060 C 
BRANCH   7   8
ATOM      8  C2' I4B d   1       0.913   1.420  -2.141  0.00  0.00    -0.013 C 
ATOM      9  C4' I4B d   1       2.285   1.895  -1.741  0.00  0.00     0.013 C 
ATOM     10  C3' I4B d   1       0.848   1.127  -3.610  0.00  0.00     0.013 C 
ENDBRANCH   7   8
ENDBRANCH   1   7
TORSDOF 2
ENDMDL
