MODEL 1
REMARK minimizedAffinity -0.889349222
REMARK minimizedRMSD -1
REMARK  0 active torsions:
REMARK  status: ('A' for Active; 'I' for Inactive)
ROOT
ATOM      1  C   UNL d   1       1.308  -2.651  -3.572  0.00  0.00    -0.002 A 
ATOM      2  C1  UNL d   1       1.099  -1.443  -4.221  0.00  0.00     0.010 A 
ATOM      3  C2  UNL d   1       0.618  -0.334  -3.521  0.00  0.00     0.041 A 
ATOM      4  C3  UNL d   1       0.349  -0.462  -2.144  0.00  0.00    -0.075 A 
ATOM      5  S   UNL d   1      -0.245   0.760  -1.084  0.00  0.00     0.015 SA
ATOM      6  C4  UNL d   1      -0.235  -0.293   0.256  0.00  0.00     0.022 A 
ATOM      7  C5  UNL d   1       0.208  -1.550  -0.079  0.00  0.00     0.026 A 
ATOM      8  C6  UNL d   1       0.552  -1.668  -1.469  0.00  0.00    -0.082 A 
ATOM      9  C7  UNL d   1       1.040  -2.774  -2.206  0.00  0.00     0.045 A 
ENDROOT
TORSDOF 0
ENDMDL
