MODEL 1
REMARK minimizedAffinity 0.656293154
REMARK minimizedRMSD -1
REMARK  0 active torsions:
REMARK  status: ('A' for Active; 'I' for Inactive)
ROOT
ATOM      1  C   UNL d   1       1.487  -0.459  -4.202  0.00  0.00    -0.002 A 
ATOM      2  C1  UNL d   1       0.403  -1.325  -4.154  0.00  0.00     0.010 A 
ATOM      3  C2  UNL d   1      -0.343  -1.465  -2.982  0.00  0.00     0.041 A 
ATOM      4  C3  UNL d   1       0.021  -0.711  -1.849  0.00  0.00    -0.075 A 
ATOM      5  S   UNL d   1      -0.747  -0.719  -0.305  0.00  0.00     0.015 SA
ATOM      6  C4  UNL d   1       0.344   0.428   0.327  0.00  0.00     0.022 A 
ATOM      7  C5  UNL d   1       1.278   0.817  -0.603  0.00  0.00     0.026 A 
ATOM      8  C6  UNL d   1       1.107   0.168  -1.873  0.00  0.00    -0.082 A 
ATOM      9  C7  UNL d   1       1.844   0.287  -3.076  0.00  0.00     0.045 A 
ENDROOT
TORSDOF 0
ENDMDL
