MODEL 1
REMARK minimizedAffinity -0.47987026
REMARK minimizedRMSD -1
REMARK  0 active torsions:
REMARK  status: ('A' for Active; 'I' for Inactive)
ROOT
ATOM      1  C   UNL d   1       0.735  -1.154  -4.031  0.00  0.00    -0.002 A 
ATOM      2  C1  UNL d   1       1.958  -0.577  -3.723  0.00  0.00     0.010 A 
ATOM      3  C2  UNL d   1       2.183  -0.017  -2.464  0.00  0.00     0.041 A 
ATOM      4  C3  UNL d   1       1.148  -0.049  -1.509  0.00  0.00    -0.075 A 
ATOM      5  S   UNL d   1       1.196   0.573   0.098  0.00  0.00     0.015 SA
ATOM      6  C4  UNL d   1      -0.407   0.087   0.414  0.00  0.00     0.022 A 
ATOM      7  C5  UNL d   1      -0.979  -0.537  -0.669  0.00  0.00     0.026 A 
ATOM      8  C6  UNL d   1      -0.093  -0.626  -1.795  0.00  0.00    -0.082 A 
ATOM      9  C7  UNL d   1      -0.290  -1.184  -3.081  0.00  0.00     0.045 A 
ENDROOT
TORSDOF 0
ENDMDL
