MODEL 1
REMARK minimizedAffinity -0.683813274
REMARK minimizedRMSD -1
REMARK  0 active torsions:
REMARK  status: ('A' for Active; 'I' for Inactive)
ROOT
ATOM      1  C   UNL d   1      -0.671  -0.763   3.036  0.00  0.00    -0.002 A 
ATOM      2  C1  UNL d   1      -1.860  -1.095   2.402  0.00  0.00     0.010 A 
ATOM      3  C2  UNL d   1      -2.047  -0.808   1.048  0.00  0.00     0.041 A 
ATOM      4  C3  UNL d   1      -1.008  -0.178   0.335  0.00  0.00    -0.075 A 
ATOM      5  S   UNL d   1      -1.012   0.268  -1.330  0.00  0.00     0.015 SA
ATOM      6  C4  UNL d   1       0.565   0.909  -1.239  0.00  0.00     0.022 A 
ATOM      7  C5  UNL d   1       1.096   0.794   0.023  0.00  0.00     0.026 A 
ATOM      8  C6  UNL d   1       0.199   0.164   0.952  0.00  0.00    -0.082 A 
ATOM      9  C7  UNL d   1       0.357  -0.139   2.325  0.00  0.00     0.045 A 
ENDROOT
TORSDOF 0
ENDMDL
