MODEL 1
REMARK minimizedAffinity -3.94180775
REMARK minimizedRMSD -1
REMARK  0 active torsions:
REMARK  status: ('A' for Active; 'I' for Inactive)
ROOT
ATOM      1  C   UNL d   1       0.390  -0.724  -1.327  0.00  0.00    -0.002 A 
ATOM      2  C1  UNL d   1       1.173   0.367  -0.976  0.00  0.00     0.010 A 
ATOM      3  C2  UNL d   1       1.228   0.804   0.349  0.00  0.00     0.041 A 
ATOM      4  C3  UNL d   1       0.476   0.119   1.325  0.00  0.00    -0.075 A 
ATOM      5  S   UNL d   1       0.389   0.475   3.009  0.00  0.00     0.015 SA
ATOM      6  C4  UNL d   1      -0.689  -0.812   3.302  0.00  0.00     0.022 A 
ATOM      7  C5  UNL d   1      -0.986  -1.507   2.153  0.00  0.00     0.026 A 
ATOM      8  C6  UNL d   1      -0.319  -0.982   0.995  0.00  0.00    -0.082 A 
ATOM      9  C7  UNL d   1      -0.354  -1.401  -0.357  0.00  0.00     0.045 A 
ENDROOT
TORSDOF 0
ENDMDL
