MODEL 1
REMARK minimizedAffinity -1.41817153
REMARK minimizedRMSD -1
REMARK  0 active torsions:
REMARK  status: ('A' for Active; 'I' for Inactive)
ROOT
ATOM      1  C   UNL d   1      -0.909  -0.426   3.318  0.00  0.00    -0.002 A 
ATOM      2  C1  UNL d   1      -1.903  -1.117   2.640  0.00  0.00     0.010 A 
ATOM      3  C2  UNL d   1      -1.993  -1.046   1.248  0.00  0.00     0.041 A 
ATOM      4  C3  UNL d   1      -1.058  -0.264   0.543  0.00  0.00    -0.075 A 
ATOM      5  S   UNL d   1      -0.975  -0.030  -1.163  0.00  0.00     0.015 SA
ATOM      6  C4  UNL d   1       0.383   0.992  -1.032  0.00  0.00     0.022 A 
ATOM      7  C5  UNL d   1       0.776   1.162   0.275  0.00  0.00     0.026 A 
ATOM      8  C6  UNL d   1      -0.048   0.440   1.204  0.00  0.00    -0.082 A 
ATOM      9  C7  UNL d   1       0.017   0.349   2.615  0.00  0.00     0.045 A 
ENDROOT
TORSDOF 0
ENDMDL
