MODEL 1
REMARK minimizedAffinity -3.08884311
REMARK minimizedRMSD -1
REMARK  0 active torsions:
REMARK  status: ('A' for Active; 'I' for Inactive)
ROOT
ATOM      1  C   UNL d   1      -1.474  -1.413   2.151  0.00  0.00    -0.002 A 
ATOM      2  C1  UNL d   1      -0.492  -0.809   2.923  0.00  0.00     0.010 A 
ATOM      3  C2  UNL d   1       0.410   0.090   2.349  0.00  0.00     0.041 A 
ATOM      4  C3  UNL d   1       0.306   0.375   0.973  0.00  0.00    -0.075 A 
ATOM      5  S   UNL d   1       1.300   1.443   0.055  0.00  0.00     0.015 SA
ATOM      6  C4  UNL d   1       0.444   1.123  -1.384  0.00  0.00     0.022 A 
ATOM      7  C5  UNL d   1      -0.578   0.225  -1.186  0.00  0.00     0.026 A 
ATOM      8  C6  UNL d   1      -0.675  -0.220   0.175  0.00  0.00    -0.082 A 
ATOM      9  C7  UNL d   1      -1.574  -1.128   0.786  0.00  0.00     0.045 A 
ENDROOT
TORSDOF 0
ENDMDL
