MODEL 1
REMARK minimizedAffinity -4.80005932
REMARK minimizedRMSD -1
REMARK  0 active torsions:
REMARK  status: ('A' for Active; 'I' for Inactive)
ROOT
ATOM      1  C   UNL d   1      -1.132  -0.531   3.441  0.00  0.00    -0.002 A 
ATOM      2  C1  UNL d   1      -2.375  -0.691   2.845  0.00  0.00     0.010 A 
ATOM      3  C2  UNL d   1      -2.578  -0.321   1.514  0.00  0.00     0.041 A 
ATOM      4  C3  UNL d   1      -1.499   0.216   0.784  0.00  0.00    -0.075 A 
ATOM      5  S   UNL d   1      -1.513   0.738  -0.859  0.00  0.00     0.015 SA
ATOM      6  C4  UNL d   1       0.132   1.184  -0.809  0.00  0.00     0.022 A 
ATOM      7  C5  UNL d   1       0.693   0.947   0.424  0.00  0.00     0.026 A 
ATOM      8  C6  UNL d   1      -0.237   0.385   1.362  0.00  0.00    -0.082 A 
ATOM      9  C7  UNL d   1      -0.064   0.001   2.714  0.00  0.00     0.045 A 
ENDROOT
TORSDOF 0
ENDMDL
