MODEL 1
REMARK minimizedAffinity -2.6996665
REMARK minimizedRMSD -1
REMARK  0 active torsions:
REMARK  status: ('A' for Active; 'I' for Inactive)
ROOT
ATOM      1  C   UNL d   1       0.368  -0.016   3.012  0.00  0.00    -0.002 A 
ATOM      2  C1  UNL d   1       1.539  -0.034   2.269  0.00  0.00     0.010 A 
ATOM      3  C2  UNL d   1       1.501   0.098   0.879  0.00  0.00     0.041 A 
ATOM      4  C3  UNL d   1       0.254   0.253   0.243  0.00  0.00    -0.075 A 
ATOM      5  S   UNL d   1      -0.036   0.433  -1.447  0.00  0.00     0.015 SA
ATOM      6  C4  UNL d   1      -1.722   0.540  -1.222  0.00  0.00     0.022 A 
ATOM      7  C5  UNL d   1      -2.073   0.442   0.104  0.00  0.00     0.026 A 
ATOM      8  C6  UNL d   1      -0.940   0.275   0.970  0.00  0.00    -0.082 A 
ATOM      9  C7  UNL d   1      -0.868   0.138   2.377  0.00  0.00     0.045 A 
ENDROOT
TORSDOF 0
ENDMDL
