MODEL 1
REMARK minimizedAffinity 10.9427481
REMARK minimizedRMSD -1
REMARK  2 active torsions:
REMARK  status: ('A' for Active; 'I' for Inactive)
REMARK    1  A    between atoms: C2'_3  and  C1'_4 
REMARK    2  A    between atoms: C1'_4  and  C1_5 
ROOT
ATOM      1  C1  I4B d   1      -0.942  -1.592  -0.871  0.00  0.00    -0.075 A 
ATOM      2  C2  I4B d   1      -1.149  -0.268  -0.571  0.00  0.00     0.003 A 
ATOM      3  C3  I4B d   1      -0.419   0.738  -1.248  0.00  0.00     0.002 A 
ATOM      4  C4  I4B d   1       0.538   0.378  -2.174  0.00  0.00    -0.004 A 
ATOM      5  C5  I4B d   1       0.730  -0.964  -2.493  0.00  0.00     0.002 A 
ATOM      6  C6  I4B d   1      -0.023  -1.954  -1.847  0.00  0.00     0.003 A 
ENDROOT
BRANCH   1   7
ATOM      7  C1' I4B d   1      -1.708  -2.631  -0.114  0.00  0.00     0.060 C 
BRANCH   7   8
ATOM      8  C2' I4B d   1      -1.254  -3.992  -0.601  0.00  0.00    -0.013 C 
ATOM      9  C4' I4B d   1      -0.225  -4.586   0.324  0.00  0.00     0.013 C 
ATOM     10  C3' I4B d   1      -2.462  -4.873  -0.704  0.00  0.00     0.013 C 
ENDBRANCH   7   8
ENDBRANCH   1   7
TORSDOF 2
ENDMDL
