MODEL 1
REMARK minimizedAffinity 2.23245788
REMARK minimizedRMSD -1
REMARK  2 active torsions:
REMARK  status: ('A' for Active; 'I' for Inactive)
REMARK    1  A    between atoms: C2'_3  and  C1'_4 
REMARK    2  A    between atoms: C1'_4  and  C1_5 
ROOT
ATOM      1  C1  I4B d   1       3.485   1.992  -1.764  0.00  0.00    -0.075 A 
ATOM      2  C2  I4B d   1       3.859   2.986  -2.633  0.00  0.00     0.003 A 
ATOM      3  C3  I4B d   1       3.959   4.325  -2.183  0.00  0.00     0.002 A 
ATOM      4  C4  I4B d   1       3.629   4.630  -0.878  0.00  0.00    -0.004 A 
ATOM      5  C5  I4B d   1       3.272   3.617   0.007  0.00  0.00     0.002 A 
ATOM      6  C6  I4B d   1       3.212   2.287  -0.435  0.00  0.00     0.003 A 
ENDROOT
BRANCH   1   7
ATOM      7  C1' I4B d   1       3.358   0.594  -2.281  0.00  0.00     0.060 C 
BRANCH   7   8
ATOM      8  C2' I4B d   1       1.947   0.416  -2.804  0.00  0.00    -0.013 C 
ATOM      9  C4' I4B d   1       1.910   0.478  -4.308  0.00  0.00     0.013 C 
ATOM     10  C3' I4B d   1       1.431  -0.901  -2.304  0.00  0.00     0.013 C 
ENDBRANCH   7   8
ENDBRANCH   1   7
TORSDOF 2
ENDMDL
