MODEL 1
REMARK minimizedAffinity -3.04754591
REMARK minimizedRMSD -1
REMARK  2 active torsions:
REMARK  status: ('A' for Active; 'I' for Inactive)
REMARK    1  A    between atoms: C2'_3  and  C1'_4 
REMARK    2  A    between atoms: C1'_4  and  C1_5 
ROOT
ATOM      1  C1  I4B d   1       5.044   2.583   4.249  0.00  0.00    -0.075 A 
ATOM      2  C2  I4B d   1       5.634   2.417   5.476  0.00  0.00     0.003 A 
ATOM      3  C3  I4B d   1       5.972   1.121   5.936  0.00  0.00     0.002 A 
ATOM      4  C4  I4B d   1       5.657   0.022   5.162  0.00  0.00    -0.004 A 
ATOM      5  C5  I4B d   1       5.079   0.194   3.908  0.00  0.00     0.002 A 
ATOM      6  C6  I4B d   1       4.781   1.483   3.442  0.00  0.00     0.003 A 
ENDROOT
BRANCH   1   7
ATOM      7  C1' I4B d   1       4.671   3.963   3.809  0.00  0.00     0.060 C 
BRANCH   7   8
ATOM      8  C2' I4B d   1       5.945   4.774   3.687  0.00  0.00    -0.013 C 
ATOM      9  C4' I4B d   1       6.000   5.508   2.373  0.00  0.00     0.013 C 
ATOM     10  C3' I4B d   1       5.999   5.729   4.842  0.00  0.00     0.013 C 
ENDBRANCH   7   8
ENDBRANCH   1   7
TORSDOF 2
ENDMDL
