MODEL 1
REMARK minimizedAffinity 1.01458991
REMARK minimizedRMSD -1
REMARK  2 active torsions:
REMARK  status: ('A' for Active; 'I' for Inactive)
REMARK    1  A    between atoms: C2'_3  and  C1'_4 
REMARK    2  A    between atoms: C1'_4  and  C1_5 
ROOT
ATOM      1  C1  I4B d   1       5.942   1.362   3.655  0.00  0.00    -0.075 A 
ATOM      2  C2  I4B d   1       5.891   1.194   5.016  0.00  0.00     0.003 A 
ATOM      3  C3  I4B d   1       5.865  -0.108   5.573  0.00  0.00     0.002 A 
ATOM      4  C4  I4B d   1       5.841  -1.205   4.736  0.00  0.00    -0.004 A 
ATOM      5  C5  I4B d   1       5.916  -1.033   3.357  0.00  0.00     0.002 A 
ATOM      6  C6  I4B d   1       5.980   0.258   2.813  0.00  0.00     0.003 A 
ENDROOT
BRANCH   1   7
ATOM      7  C1' I4B d   1       5.935   2.751   3.099  0.00  0.00     0.060 C 
BRANCH   7   8
ATOM      8  C2' I4B d   1       5.713   3.712   4.249  0.00  0.00    -0.013 C 
ATOM      9  C4' I4B d   1       5.989   5.133   3.833  0.00  0.00     0.013 C 
ATOM     10  C3' I4B d   1       4.298   3.551   4.720  0.00  0.00     0.013 C 
ENDBRANCH   7   8
ENDBRANCH   1   7
TORSDOF 2
ENDMDL
