MODEL 1
REMARK minimizedAffinity -3.79123044
REMARK minimizedRMSD -1
REMARK  2 active torsions:
REMARK  status: ('A' for Active; 'I' for Inactive)
REMARK    1  A    between atoms: C2'_3  and  C1'_4 
REMARK    2  A    between atoms: C1'_4  and  C1_5 
ROOT
ATOM      1  C1  I4B d   1       5.851   2.894   3.420  0.00  0.00    -0.075 A 
ATOM      2  C2  I4B d   1       5.805   3.607   2.248  0.00  0.00     0.003 A 
ATOM      3  C3  I4B d   1       5.870   5.021   2.270  0.00  0.00     0.002 A 
ATOM      4  C4  I4B d   1       5.930   5.680   3.481  0.00  0.00    -0.004 A 
ATOM      5  C5  I4B d   1       5.999   4.955   4.667  0.00  0.00     0.002 A 
ATOM      6  C6  I4B d   1       5.972   3.553   4.637  0.00  0.00     0.003 A 
ENDROOT
BRANCH   1   7
ATOM      7  C1' I4B d   1       5.746   1.403   3.362  0.00  0.00     0.060 C 
BRANCH   7   8
ATOM      8  C2' I4B d   1       5.901   0.870   4.772  0.00  0.00    -0.013 C 
ATOM      9  C4' I4B d   1       4.749   1.293   5.644  0.00  0.00     0.013 C 
ATOM     10  C3' I4B d   1       5.999  -0.625   4.693  0.00  0.00     0.013 C 
ENDBRANCH   7   8
ENDBRANCH   1   7
TORSDOF 2
ENDMDL
