MODEL 1
REMARK minimizedAffinity -0.436996877
REMARK minimizedRMSD -1
REMARK  2 active torsions:
REMARK  status: ('A' for Active; 'I' for Inactive)
REMARK    1  A    between atoms: C2'_3  and  C1'_4 
REMARK    2  A    between atoms: C1'_4  and  C1_5 
ROOT
ATOM      1  C1  I4B d   1       5.974   1.203   4.543  0.00  0.00    -0.075 A 
ATOM      2  C2  I4B d   1       5.904   1.875   3.348  0.00  0.00     0.003 A 
ATOM      3  C3  I4B d   1       5.847   3.289   3.327  0.00  0.00     0.002 A 
ATOM      4  C4  I4B d   1       5.811   3.986   4.518  0.00  0.00    -0.004 A 
ATOM      5  C5  I4B d   1       5.906   3.305   5.728  0.00  0.00     0.002 A 
ATOM      6  C6  I4B d   1       6.000   1.906   5.741  0.00  0.00     0.003 A 
ENDROOT
BRANCH   1   7
ATOM      7  C1' I4B d   1       5.999  -0.292   4.529  0.00  0.00     0.060 C 
BRANCH   7   8
ATOM      8  C2' I4B d   1       5.396  -0.781   5.831  0.00  0.00    -0.013 C 
ATOM      9  C4' I4B d   1       3.986  -0.281   6.000  0.00  0.00     0.013 C 
ATOM     10  C3' I4B d   1       5.442  -2.280   5.828  0.00  0.00     0.013 C 
ENDBRANCH   7   8
ENDBRANCH   1   7
TORSDOF 2
ENDMDL
