MODEL 1
REMARK minimizedAffinity -1.41756403
REMARK minimizedRMSD -1
REMARK  2 active torsions:
REMARK  status: ('A' for Active; 'I' for Inactive)
REMARK    1  A    between atoms: C2'_3  and  C1'_4 
REMARK    2  A    between atoms: C1'_4  and  C1_5 
ROOT
ATOM      1  C1  I4B d   1       4.913   1.721   4.217  0.00  0.00    -0.075 A 
ATOM      2  C2  I4B d   1       5.676   0.872   3.455  0.00  0.00     0.003 A 
ATOM      3  C3  I4B d   1       5.998  -0.421   3.934  0.00  0.00     0.002 A 
ATOM      4  C4  I4B d   1       5.582  -0.802   5.193  0.00  0.00    -0.004 A 
ATOM      5  C5  I4B d   1       4.790   0.051   5.955  0.00  0.00     0.002 A 
ATOM      6  C6  I4B d   1       4.442   1.316   5.459  0.00  0.00     0.003 A 
ENDROOT
BRANCH   1   7
ATOM      7  C1' I4B d   1       4.619   3.091   3.694  0.00  0.00     0.060 C 
BRANCH   7   8
ATOM      8  C2' I4B d   1       5.918   3.870   3.669  0.00  0.00    -0.013 C 
ATOM      9  C4' I4B d   1       5.999   4.757   2.455  0.00  0.00     0.013 C 
ATOM     10  C3' I4B d   1       6.000   4.674   4.933  0.00  0.00     0.013 C 
ENDBRANCH   7   8
ENDBRANCH   1   7
TORSDOF 2
ENDMDL
