MODEL 1
REMARK minimizedAffinity -3.74977446
REMARK minimizedRMSD -1
REMARK  2 active torsions:
REMARK  status: ('A' for Active; 'I' for Inactive)
REMARK    1  A    between atoms: C2'_3  and  C1'_4 
REMARK    2  A    between atoms: C1'_4  and  C1_5 
ROOT
ATOM      1  C1  I4B d   1       5.026  -0.623   4.486  0.00  0.00    -0.075 A 
ATOM      2  C2  I4B d   1       5.142  -0.042   5.724  0.00  0.00     0.003 A 
ATOM      3  C3  I4B d   1       5.611   1.288   5.847  0.00  0.00     0.002 A 
ATOM      4  C4  I4B d   1       5.999   1.979   4.717  0.00  0.00    -0.004 A 
ATOM      5  C5  I4B d   1       5.859   1.397   3.460  0.00  0.00     0.002 A 
ATOM      6  C6  I4B d   1       5.358   0.092   3.343  0.00  0.00     0.003 A 
ENDROOT
BRANCH   1   7
ATOM      7  C1' I4B d   1       4.557  -2.041   4.396  0.00  0.00     0.060 C 
BRANCH   7   8
ATOM      8  C2' I4B d   1       5.779  -2.937   4.397  0.00  0.00    -0.013 C 
ATOM      9  C4' I4B d   1       5.616  -4.079   5.365  0.00  0.00     0.013 C 
ATOM     10  C3' I4B d   1       5.988  -3.437   2.999  0.00  0.00     0.013 C 
ENDBRANCH   7   8
ENDBRANCH   1   7
TORSDOF 2
ENDMDL
