MODEL 1
REMARK minimizedAffinity -2.02161646
REMARK minimizedRMSD -1
REMARK  2 active torsions:
REMARK  status: ('A' for Active; 'I' for Inactive)
REMARK    1  A    between atoms: C2'_3  and  C1'_4 
REMARK    2  A    between atoms: C1'_4  and  C1_5 
ROOT
ATOM      1  C1  I4B d   1       5.965   2.955   4.498  0.00  0.00    -0.075 A 
ATOM      2  C2  I4B d   1       5.970   2.612   3.169  0.00  0.00     0.003 A 
ATOM      3  C3  I4B d   1       6.000   3.617   2.173  0.00  0.00     0.002 A 
ATOM      4  C4  I4B d   1       5.973   4.945   2.547  0.00  0.00    -0.004 A 
ATOM      5  C5  I4B d   1       5.991   5.292   3.895  0.00  0.00     0.002 A 
ATOM      6  C6  I4B d   1       6.000   4.291   4.877  0.00  0.00     0.003 A 
ENDROOT
BRANCH   1   7
ATOM      7  C1' I4B d   1       5.901   1.868   5.524  0.00  0.00     0.060 C 
BRANCH   7   8
ATOM      8  C2' I4B d   1       5.907   0.539   4.796  0.00  0.00    -0.013 C 
ATOM      9  C4' I4B d   1       5.904  -0.613   5.766  0.00  0.00     0.013 C 
ATOM     10  C3' I4B d   1       4.706   0.496   3.900  0.00  0.00     0.013 C 
ENDBRANCH   7   8
ENDBRANCH   1   7
TORSDOF 2
ENDMDL
