MODEL 1
REMARK minimizedAffinity -1.86718059
REMARK minimizedRMSD -1
REMARK  2 active torsions:
REMARK  status: ('A' for Active; 'I' for Inactive)
REMARK    1  A    between atoms: C2'_3  and  C1'_4 
REMARK    2  A    between atoms: C1'_4  and  C1_5 
ROOT
ATOM      1  C1  I4B d   1       5.546   1.362   3.712  0.00  0.00    -0.075 A 
ATOM      2  C2  I4B d   1       4.978   0.141   3.443  0.00  0.00     0.003 A 
ATOM      3  C3  I4B d   1       4.859  -0.830   4.466  0.00  0.00     0.002 A 
ATOM      4  C4  I4B d   1       5.365  -0.561   5.722  0.00  0.00    -0.004 A 
ATOM      5  C5  I4B d   1       5.920   0.686   5.998  0.00  0.00     0.002 A 
ATOM      6  C6  I4B d   1       6.000   1.658   4.990  0.00  0.00     0.003 A 
ENDROOT
BRANCH   1   7
ATOM      7  C1' I4B d   1       5.685   2.353   2.600  0.00  0.00     0.060 C 
BRANCH   7   8
ATOM      8  C2' I4B d   1       5.742   3.737   3.213  0.00  0.00    -0.013 C 
ATOM      9  C4' I4B d   1       5.997   4.787   2.164  0.00  0.00     0.013 C 
ATOM     10  C3' I4B d   1       4.444   3.984   3.922  0.00  0.00     0.013 C 
ENDBRANCH   7   8
ENDBRANCH   1   7
TORSDOF 2
ENDMDL
