MODEL 1
REMARK minimizedAffinity -1.16324675
REMARK minimizedRMSD -1
REMARK  1 active torsions:
REMARK  status: ('A' for Active; 'I' for Inactive)
REMARK    1  A    between atoms: C1_2  and  C2_3 
ROOT
ATOM      1  C2  UNL d   1       0.788  -2.189  -1.195  0.00  0.00    -0.076 A 
ATOM      2  C3  UNL d   1       0.885  -3.348  -0.405  0.00  0.00     0.004 A 
ATOM      3  C4  UNL d   1       0.491  -4.590  -0.901  0.00  0.00    -0.003 A 
ATOM      4  C5  UNL d   1      -0.006  -4.693  -2.195  0.00  0.00     0.000 A 
ATOM      5  C6  UNL d   1      -0.093  -3.557  -2.999  0.00  0.00     0.000 A 
ATOM      6  C7  UNL d   1       0.315  -2.300  -2.520  0.00  0.00    -0.073 A 
ATOM      7  C8  UNL d   1       0.194  -1.107  -3.429  0.00  0.00     0.078 C 
ENDROOT
BRANCH   1   8
ATOM      8  C1  UNL d   1       1.204  -0.866  -0.594  0.00  0.00     0.053 C 
ATOM      9  C   UNL d   1       0.505  -0.579   0.726  0.00  0.00     0.018 C 
ENDBRANCH   1   8
TORSDOF 1
ENDMDL
