MODEL 1
REMARK minimizedAffinity -2.86651134
REMARK minimizedRMSD -1
REMARK  1 active torsions:
REMARK  status: ('A' for Active; 'I' for Inactive)
REMARK    1  A    between atoms: C1_2  and  C2_3 
ROOT
ATOM      1  C2  UNL d   1      -0.042   1.736   0.299  0.00  0.00    -0.076 A 
ATOM      2  C3  UNL d   1      -0.914   1.869   1.394  0.00  0.00     0.004 A 
ATOM      3  C4  UNL d   1      -1.209   0.779   2.212  0.00  0.00    -0.003 A 
ATOM      4  C5  UNL d   1      -0.637  -0.460   1.949  0.00  0.00     0.000 A 
ATOM      5  C6  UNL d   1       0.244  -0.606   0.877  0.00  0.00     0.000 A 
ATOM      6  C7  UNL d   1       0.565   0.487   0.053  0.00  0.00    -0.073 A 
ATOM      7  C8  UNL d   1       1.517   0.272  -1.092  0.00  0.00     0.078 C 
ENDROOT
BRANCH   1   8
ATOM      8  C1  UNL d   1       0.219   2.947  -0.569  0.00  0.00     0.053 C 
ATOM      9  C   UNL d   1       0.101   4.253   0.202  0.00  0.00     0.018 C 
ENDBRANCH   1   8
TORSDOF 1
ENDMDL
