MODEL 1
REMARK minimizedAffinity -1.39774096
REMARK minimizedRMSD -1
REMARK  1 active torsions:
REMARK  status: ('A' for Active; 'I' for Inactive)
REMARK    1  A    between atoms: C1_2  and  C2_3 
ROOT
ATOM      1  C2  UNL d   1      -0.419   1.401   0.102  0.00  0.00    -0.076 A 
ATOM      2  C3  UNL d   1      -0.001   2.172  -0.997  0.00  0.00     0.004 A 
ATOM      3  C4  UNL d   1      -0.037   3.565  -0.951  0.00  0.00    -0.003 A 
ATOM      4  C5  UNL d   1      -0.490   4.209   0.194  0.00  0.00     0.000 A 
ATOM      5  C6  UNL d   1      -0.892   3.461   1.300  0.00  0.00     0.000 A 
ATOM      6  C7  UNL d   1      -0.847   2.057   1.277  0.00  0.00    -0.073 A 
ATOM      7  C8  UNL d   1      -1.298   1.300   2.496  0.00  0.00     0.078 C 
ENDROOT
BRANCH   1   8
ATOM      8  C1  UNL d   1      -0.384  -0.106  -0.015  0.00  0.00     0.053 C 
ATOM      9  C   UNL d   1       0.993  -0.629  -0.394  0.00  0.00     0.018 C 
ENDBRANCH   1   8
TORSDOF 1
ENDMDL
