MODEL 1
REMARK minimizedAffinity -2.44993424
REMARK minimizedRMSD -1
REMARK  1 active torsions:
REMARK  status: ('A' for Active; 'I' for Inactive)
REMARK    1  A    between atoms: C1_2  and  C2_3 
ROOT
ATOM      1  C2  UNL d   1       0.276   1.390   0.373  0.00  0.00    -0.076 A 
ATOM      2  C3  UNL d   1      -0.677   1.653   1.373  0.00  0.00     0.004 A 
ATOM      3  C4  UNL d   1      -0.915   0.736   2.396  0.00  0.00    -0.003 A 
ATOM      4  C5  UNL d   1      -0.204  -0.458   2.436  0.00  0.00     0.000 A 
ATOM      5  C6  UNL d   1       0.757  -0.728   1.462  0.00  0.00     0.000 A 
ATOM      6  C7  UNL d   1       1.021   0.193   0.434  0.00  0.00    -0.073 A 
ATOM      7  C8  UNL d   1       2.065  -0.152  -0.594  0.00  0.00     0.078 C 
ENDROOT
BRANCH   1   8
ATOM      8  C1  UNL d   1       0.472   2.409  -0.726  0.00  0.00     0.053 C 
ATOM      9  C   UNL d   1       0.346   3.839  -0.224  0.00  0.00     0.018 C 
ENDBRANCH   1   8
TORSDOF 1
ENDMDL
