MODEL 1
REMARK minimizedAffinity -1.33152056
REMARK minimizedRMSD -1
REMARK  1 active torsions:
REMARK  status: ('A' for Active; 'I' for Inactive)
REMARK    1  A    between atoms: C1_2  and  C2_3 
ROOT
ATOM      1  C2  UNL d   1      -0.141   1.416   0.313  0.00  0.00    -0.076 A 
ATOM      2  C3  UNL d   1      -0.687   1.799   1.550  0.00  0.00     0.004 A 
ATOM      3  C4  UNL d   1      -1.107   0.845   2.475  0.00  0.00    -0.003 A 
ATOM      4  C5  UNL d   1      -0.987  -0.508   2.179  0.00  0.00     0.000 A 
ATOM      5  C6  UNL d   1      -0.431  -0.906   0.964  0.00  0.00     0.000 A 
ATOM      6  C7  UNL d   1       0.012   0.042   0.026  0.00  0.00    -0.073 A 
ATOM      7  C8  UNL d   1       0.598  -0.444  -1.271  0.00  0.00     0.078 C 
ENDROOT
BRANCH   1   8
ATOM      8  C1  UNL d   1       0.273   2.495  -0.662  0.00  0.00     0.053 C 
ATOM      9  C   UNL d   1       0.326   3.872  -0.019  0.00  0.00     0.018 C 
ENDBRANCH   1   8
TORSDOF 1
ENDMDL
