MODEL 1
REMARK minimizedAffinity -3.97196126
REMARK minimizedRMSD -1
REMARK  1 active torsions:
REMARK  status: ('A' for Active; 'I' for Inactive)
REMARK    1  A    between atoms: C1_2  and  C2_3 
ROOT
ATOM      1  C2  UNL d   1       0.605  -0.626   0.056  0.00  0.00    -0.076 A 
ATOM      2  C3  UNL d   1      -0.233  -0.919   1.147  0.00  0.00     0.004 A 
ATOM      3  C4  UNL d   1      -0.843   0.100   1.876  0.00  0.00    -0.003 A 
ATOM      4  C5  UNL d   1      -0.626   1.429   1.527  0.00  0.00     0.000 A 
ATOM      5  C6  UNL d   1       0.188   1.736   0.437  0.00  0.00     0.000 A 
ATOM      6  C7  UNL d   1       0.798   0.721  -0.319  0.00  0.00    -0.073 A 
ATOM      7  C8  UNL d   1       1.671   1.110  -1.480  0.00  0.00     0.078 C 
ENDROOT
BRANCH   1   8
ATOM      8  C1  UNL d   1       1.261  -1.772  -0.681  0.00  0.00     0.053 C 
ATOM      9  C   UNL d   1       0.399  -2.305  -1.815  0.00  0.00     0.018 C 
ENDBRANCH   1   8
TORSDOF 1
ENDMDL
