MODEL 1
REMARK minimizedAffinity -1.20846486
REMARK minimizedRMSD -1
REMARK  1 active torsions:
REMARK  status: ('A' for Active; 'I' for Inactive)
REMARK    1  A    between atoms: C1_2  and  C2_3 
ROOT
ATOM      1  C2  UNL d   1       0.186  -0.026   0.139  0.00  0.00    -0.076 A 
ATOM      2  C3  UNL d   1      -0.128  -0.973   1.130  0.00  0.00     0.004 A 
ATOM      3  C4  UNL d   1      -0.903  -0.625   2.235  0.00  0.00    -0.003 A 
ATOM      4  C5  UNL d   1      -1.378   0.675   2.367  0.00  0.00     0.000 A 
ATOM      5  C6  UNL d   1      -1.091   1.623   1.386  0.00  0.00     0.000 A 
ATOM      6  C7  UNL d   1      -0.325   1.285   0.257  0.00  0.00    -0.073 A 
ATOM      7  C8  UNL d   1      -0.041   2.349  -0.768  0.00  0.00     0.078 C 
ENDROOT
BRANCH   1   8
ATOM      8  C1  UNL d   1       1.053  -0.454  -1.023  0.00  0.00     0.053 C 
ATOM      9  C   UNL d   1       0.770  -1.881  -1.467  0.00  0.00     0.018 C 
ENDBRANCH   1   8
TORSDOF 1
ENDMDL
