MODEL 1
REMARK minimizedAffinity -3.10872197
REMARK minimizedRMSD -1
REMARK  1 active torsions:
REMARK  status: ('A' for Active; 'I' for Inactive)
REMARK    1  A    between atoms: C1_2  and  C2_3 
ROOT
ATOM      1  C2  UNL d   1       0.202  -0.020   0.122  0.00  0.00    -0.076 A 
ATOM      2  C3  UNL d   1      -0.292  -0.945   1.058  0.00  0.00     0.004 A 
ATOM      3  C4  UNL d   1      -1.095  -0.532   2.120  0.00  0.00    -0.003 A 
ATOM      4  C5  UNL d   1      -1.418   0.813   2.262  0.00  0.00     0.000 A 
ATOM      5  C6  UNL d   1      -0.952   1.742   1.333  0.00  0.00     0.000 A 
ATOM      6  C7  UNL d   1      -0.154   1.340   0.247  0.00  0.00    -0.073 A 
ATOM      7  C8  UNL d   1       0.326   2.386  -0.721  0.00  0.00     0.078 C 
ENDROOT
BRANCH   1   8
ATOM      8  C1  UNL d   1       1.090  -0.522  -0.993  0.00  0.00     0.053 C 
ATOM      9  C   UNL d   1       0.639  -1.869  -1.536  0.00  0.00     0.018 C 
ENDBRANCH   1   8
TORSDOF 1
ENDMDL
