MODEL 1
REMARK minimizedAffinity -1.19711256
REMARK minimizedRMSD -1
REMARK  1 active torsions:
REMARK  status: ('A' for Active; 'I' for Inactive)
REMARK    1  A    between atoms: C1_2  and  C2_3 
ROOT
ATOM      1  C2  UNL d   1       1.219  -3.226  -1.394  0.00  0.00    -0.076 A 
ATOM      2  C3  UNL d   1       0.756  -3.941  -2.513  0.00  0.00     0.004 A 
ATOM      3  C4  UNL d   1       0.005  -3.313  -3.505  0.00  0.00    -0.003 A 
ATOM      4  C5  UNL d   1      -0.296  -1.960  -3.394  0.00  0.00     0.000 A 
ATOM      5  C6  UNL d   1       0.170  -1.231  -2.300  0.00  0.00     0.000 A 
ATOM      6  C7  UNL d   1       0.943  -1.846  -1.300  0.00  0.00    -0.073 A 
ATOM      7  C8  UNL d   1       1.415  -1.014  -0.139  0.00  0.00     0.078 C 
ENDROOT
BRANCH   1   8
ATOM      8  C1  UNL d   1       2.007  -3.967  -0.337  0.00  0.00     0.053 C 
ATOM      9  C   UNL d   1       1.806  -5.473  -0.409  0.00  0.00     0.018 C 
ENDBRANCH   1   8
TORSDOF 1
ENDMDL
