MODEL 1
REMARK minimizedAffinity -2.01870537
REMARK minimizedRMSD -1
REMARK  1 active torsions:
REMARK  status: ('A' for Active; 'I' for Inactive)
REMARK    1  A    between atoms: C1_2  and  C2_3 
ROOT
ATOM      1  C2  UNL d   1       1.088  -2.076  -1.922  0.00  0.00    -0.076 A 
ATOM      2  C3  UNL d   1       0.980  -3.013  -0.880  0.00  0.00     0.004 A 
ATOM      3  C4  UNL d   1       0.462  -4.286  -1.112  0.00  0.00    -0.003 A 
ATOM      4  C5  UNL d   1       0.045  -4.643  -2.389  0.00  0.00     0.000 A 
ATOM      5  C6  UNL d   1       0.162  -3.732  -3.439  0.00  0.00     0.000 A 
ATOM      6  C7  UNL d   1       0.697  -2.450  -3.225  0.00  0.00    -0.073 A 
ATOM      7  C8  UNL d   1       0.794  -1.505  -4.392  0.00  0.00     0.078 C 
ENDROOT
BRANCH   1   8
ATOM      8  C1  UNL d   1       1.632  -0.701  -1.606  0.00  0.00     0.053 C 
ATOM      9  C   UNL d   1       0.872  -0.018  -0.479  0.00  0.00     0.018 C 
ENDBRANCH   1   8
TORSDOF 1
ENDMDL
