MODEL 1
REMARK minimizedAffinity -2.76321006
REMARK minimizedRMSD -1
REMARK  1 active torsions:
REMARK  status: ('A' for Active; 'I' for Inactive)
REMARK    1  A    between atoms: C1_2  and  C2_3 
ROOT
ATOM      1  C2  UNL d   1      -0.083   0.760   0.065  0.00  0.00    -0.076 A 
ATOM      2  C3  UNL d   1       0.418   1.277  -1.142  0.00  0.00     0.004 A 
ATOM      3  C4  UNL d   1       0.330   2.637  -1.432  0.00  0.00    -0.003 A 
ATOM      4  C5  UNL d   1      -0.260   3.504  -0.518  0.00  0.00     0.000 A 
ATOM      5  C6  UNL d   1      -0.746   3.011   0.692  0.00  0.00     0.000 A 
ATOM      6  C7  UNL d   1      -0.651   1.645   1.007  0.00  0.00    -0.073 A 
ATOM      7  C8  UNL d   1      -1.197   1.168   2.325  0.00  0.00     0.078 C 
ENDROOT
BRANCH   1   8
ATOM      8  C1  UNL d   1       0.016  -0.728   0.313  0.00  0.00     0.053 C 
ATOM      9  C   UNL d   1       0.898  -1.431  -0.707  0.00  0.00     0.018 C 
ENDBRANCH   1   8
TORSDOF 1
ENDMDL
