MODEL 1
REMARK minimizedAffinity -3.53645253
REMARK minimizedRMSD -1
REMARK  1 active torsions:
REMARK  status: ('A' for Active; 'I' for Inactive)
REMARK    1  A    between atoms: C1_2  and  C2_3 
ROOT
ATOM      1  C2  UNL d   1       0.216   0.215  -0.198  0.00  0.00    -0.076 A 
ATOM      2  C3  UNL d   1      -0.311  -0.579   0.836  0.00  0.00     0.004 A 
ATOM      3  C4  UNL d   1      -0.921   0.001   1.947  0.00  0.00    -0.003 A 
ATOM      4  C5  UNL d   1      -1.015   1.385   2.041  0.00  0.00     0.000 A 
ATOM      5  C6  UNL d   1      -0.515   2.188   1.017  0.00  0.00     0.000 A 
ATOM      6  C7  UNL d   1       0.089   1.619  -0.117  0.00  0.00    -0.073 A 
ATOM      7  C8  UNL d   1       0.617   2.532  -1.189  0.00  0.00     0.078 C 
ENDROOT
BRANCH   1   8
ATOM      8  C1  UNL d   1       0.890  -0.469  -1.365  0.00  0.00     0.053 C 
ATOM      9  C   UNL d   1       0.393  -1.891  -1.574  0.00  0.00     0.018 C 
ENDBRANCH   1   8
TORSDOF 1
ENDMDL
