MODEL 1
REMARK minimizedAffinity -5.01701403
REMARK minimizedRMSD -1
REMARK  1 active torsions:
REMARK  status: ('A' for Active; 'I' for Inactive)
REMARK    1  A    between atoms: C1_2  and  C2_3 
ROOT
ATOM      1  C2  UNL d   1       0.005   0.534   0.095  0.00  0.00    -0.076 A 
ATOM      2  C3  UNL d   1      -0.462  -0.321   1.109  0.00  0.00     0.004 A 
ATOM      3  C4  UNL d   1      -1.364   0.132   2.070  0.00  0.00    -0.003 A 
ATOM      4  C5  UNL d   1      -1.814   1.447   2.033  0.00  0.00     0.000 A 
ATOM      5  C6  UNL d   1      -1.375   2.304   1.024  0.00  0.00     0.000 A 
ATOM      6  C7  UNL d   1      -0.478   1.858   0.038  0.00  0.00    -0.073 A 
ATOM      7  C8  UNL d   1      -0.033   2.827  -1.024  0.00  0.00     0.078 C 
ENDROOT
BRANCH   1   8
ATOM      8  C1  UNL d   1       1.003  -0.006  -0.904  0.00  0.00     0.053 C 
ATOM      9  C   UNL d   1       0.720  -1.449  -1.290  0.00  0.00     0.018 C 
ENDBRANCH   1   8
TORSDOF 1
ENDMDL
