MODEL 1
REMARK minimizedAffinity -2.653373
REMARK minimizedRMSD -1
REMARK  0 active torsions:
REMARK  status: ('A' for Active; 'I' for Inactive)
ROOT
ATOM      1  C   UNL d   1       2.405   1.162   1.234  0.00  0.00     0.023 A 
ATOM      2  C1  UNL d   1       2.341  -0.105   0.654  0.00  0.00     0.003 A 
ATOM      3  C2  UNL d   1       1.214  -0.482  -0.079  0.00  0.00     0.048 A 
ATOM      4  C3  UNL d   1       0.155   0.412  -0.229  0.00  0.00     0.023 A 
ATOM      5  C4  UNL d   1       0.215   1.681   0.349  0.00  0.00     0.048 A 
ATOM      6  C5  UNL d   1       1.343   2.054   1.082  0.00  0.00     0.003 A 
ATOM      7  I   UNL d   1      -1.524  -0.147  -1.320  0.00  0.00    -0.146 I 
ENDROOT
TORSDOF 0
ENDMDL
