MODEL 1
REMARK minimizedAffinity -1.89836895
REMARK minimizedRMSD -1
REMARK  0 active torsions:
REMARK  status: ('A' for Active; 'I' for Inactive)
ROOT
ATOM      1  C   UNL d   1       2.253   0.689   1.376  0.00  0.00     0.023 A 
ATOM      2  C1  UNL d   1       2.216  -0.412   0.520  0.00  0.00     0.003 A 
ATOM      3  C2  UNL d   1       1.070  -0.673  -0.234  0.00  0.00     0.048 A 
ATOM      4  C3  UNL d   1      -0.035   0.172  -0.128  0.00  0.00     0.023 A 
ATOM      5  C4  UNL d   1      -0.001   1.275   0.727  0.00  0.00     0.048 A 
ATOM      6  C5  UNL d   1       1.147   1.531   1.479  0.00  0.00     0.003 A 
ATOM      7  I   UNL d   1      -1.741  -0.213  -1.250  0.00  0.00    -0.146 I 
ENDROOT
TORSDOF 0
ENDMDL
