MODEL 1
REMARK minimizedAffinity -3.91282415
REMARK minimizedRMSD -1
REMARK  0 active torsions:
REMARK  status: ('A' for Active; 'I' for Inactive)
ROOT
ATOM      1  C   UNL d   1       1.099   1.977  -0.112  0.00  0.00     0.023 A 
ATOM      2  C1  UNL d   1       0.032   1.086   0.011  0.00  0.00     0.003 A 
ATOM      3  C2  UNL d   1       0.219  -0.147   0.638  0.00  0.00     0.048 A 
ATOM      4  C3  UNL d   1       1.476  -0.484   1.140  0.00  0.00     0.023 A 
ATOM      5  C4  UNL d   1       2.546   0.404   1.020  0.00  0.00     0.048 A 
ATOM      6  C5  UNL d   1       2.355   1.636   0.392  0.00  0.00     0.003 A 
ATOM      7  I   UNL d   1       1.756  -2.319   2.075  0.00  0.00    -0.146 I 
ENDROOT
TORSDOF 0
ENDMDL
