MODEL 1
REMARK minimizedAffinity -4.49670029
REMARK minimizedRMSD -1
REMARK  0 active torsions:
REMARK  status: ('A' for Active; 'I' for Inactive)
ROOT
ATOM      1  C   UNL d   1       3.437  -1.145   1.056  0.00  0.00     0.023 A 
ATOM      2  C1  UNL d   1       3.129   0.100   0.507  0.00  0.00     0.003 A 
ATOM      3  C2  UNL d   1       1.804   0.426   0.212  0.00  0.00     0.048 A 
ATOM      4  C3  UNL d   1       0.791  -0.498   0.469  0.00  0.00     0.023 A 
ATOM      5  C4  UNL d   1       1.094  -1.744   1.019  0.00  0.00     0.048 A 
ATOM      6  C5  UNL d   1       2.421  -2.066   1.311  0.00  0.00     0.003 A 
ATOM      7  I   UNL d   1      -1.183  -0.015   0.030  0.00  0.00    -0.146 I 
ENDROOT
TORSDOF 0
ENDMDL
