MODEL 1
REMARK minimizedAffinity -5.11895084
REMARK minimizedRMSD -1
REMARK  0 active torsions:
REMARK  status: ('A' for Active; 'I' for Inactive)
ROOT
ATOM      1  C   UNL d   1      -2.152  -0.615  -1.788  0.00  0.00     0.023 A 
ATOM      2  C1  UNL d   1      -0.922  -0.923  -2.370  0.00  0.00     0.003 A 
ATOM      3  C2  UNL d   1       0.265  -0.577  -1.722  0.00  0.00     0.048 A 
ATOM      4  C3  UNL d   1       0.215   0.077  -0.491  0.00  0.00     0.023 A 
ATOM      5  C4  UNL d   1      -1.013   0.387   0.095  0.00  0.00     0.048 A 
ATOM      6  C5  UNL d   1      -2.197   0.040  -0.557  0.00  0.00     0.003 A 
ATOM      7  I   UNL d   1       1.981   0.594   0.476  0.00  0.00    -0.146 I 
ENDROOT
TORSDOF 0
ENDMDL
