MODEL 1
REMARK minimizedAffinity -0.103229761
REMARK minimizedRMSD -1
REMARK  0 active torsions:
REMARK  status: ('A' for Active; 'I' for Inactive)
ROOT
ATOM      1  O1  BZF d   1       0.280  -0.976   3.312  0.00  0.00    -0.204 OA
ATOM      2  C2  BZF d   1       1.585  -1.413   3.188  0.00  0.00     0.174 A 
ATOM      3  C3  BZF d   1       1.955  -1.453   1.892  0.00  0.00    -0.012 A 
ATOM      4  C3A BZF d   1       0.841  -0.925   1.166  0.00  0.00    -0.107 A 
ATOM      5  C4  BZF d   1       0.608  -0.696  -0.160  0.00  0.00     0.055 A 
ATOM      6  C5  BZF d   1      -0.612  -0.240  -0.548  0.00  0.00    -0.016 A 
ATOM      7  C6  BZF d   1      -1.623  -0.009   0.362  0.00  0.00     0.022 A 
ATOM      8  C7  BZF d   1      -1.438  -0.217   1.689  0.00  0.00     0.029 A 
ATOM      9  C7A BZF d   1      -0.195  -0.646   2.087  0.00  0.00     0.058 A 
ENDROOT
TORSDOF 0
ENDMDL
