MODEL 1
REMARK minimizedAffinity 2.97686911
REMARK minimizedRMSD -1
REMARK  0 active torsions:
REMARK  status: ('A' for Active; 'I' for Inactive)
ROOT
ATOM      1  O1  BZF d   1       1.425  -1.274  -0.573  0.00  0.00    -0.204 OA
ATOM      2  C2  BZF d   1       2.732  -1.050  -0.959  0.00  0.00     0.174 A 
ATOM      3  C3  BZF d   1       3.477  -0.644   0.090  0.00  0.00    -0.012 A 
ATOM      4  C3A BZF d   1       2.601  -0.702   1.219  0.00  0.00    -0.107 A 
ATOM      5  C4  BZF d   1       2.763  -0.434   2.548  0.00  0.00     0.055 A 
ATOM      6  C5  BZF d   1       1.688  -0.519   3.375  0.00  0.00    -0.016 A 
ATOM      7  C6  BZF d   1       0.437  -0.864   2.907  0.00  0.00     0.022 A 
ATOM      8  C7  BZF d   1       0.228  -1.144   1.597  0.00  0.00     0.029 A 
ATOM      9  C7A BZF d   1       1.319  -1.091   0.765  0.00  0.00     0.058 A 
ENDROOT
TORSDOF 0
ENDMDL
