MODEL 1
REMARK minimizedAffinity 0.38679406
REMARK minimizedRMSD -1
REMARK  0 active torsions:
REMARK  status: ('A' for Active; 'I' for Inactive)
ROOT
ATOM      1  O1  BZF d   1       0.762  -1.679   1.030  0.00  0.00    -0.204 OA
ATOM      2  C2  BZF d   1       0.213  -1.929   2.273  0.00  0.00     0.174 A 
ATOM      3  C3  BZF d   1      -0.823  -1.100   2.514  0.00  0.00    -0.012 A 
ATOM      4  C3A BZF d   1      -0.987  -0.343   1.311  0.00  0.00    -0.107 A 
ATOM      5  C4  BZF d   1      -1.862   0.633   0.928  0.00  0.00     0.055 A 
ATOM      6  C5  BZF d   1      -1.707   1.219  -0.288  0.00  0.00    -0.016 A 
ATOM      7  C6  BZF d   1      -0.685   0.859  -1.142  0.00  0.00     0.022 A 
ATOM      8  C7  BZF d   1       0.205  -0.107  -0.808  0.00  0.00     0.029 A 
ATOM      9  C7A BZF d   1       0.031  -0.724   0.406  0.00  0.00     0.058 A 
ENDROOT
TORSDOF 0
ENDMDL
