MODEL 1
REMARK minimizedAffinity 7.24070835
REMARK minimizedRMSD -1
REMARK  0 active torsions:
REMARK  status: ('A' for Active; 'I' for Inactive)
ROOT
ATOM      1  O1  BZF d   1      -1.994   2.551  -2.340  0.00  0.00    -0.204 OA
ATOM      2  C2  BZF d   1      -2.802   3.368  -3.107  0.00  0.00     0.174 A 
ATOM      3  C3  BZF d   1      -2.065   4.088  -3.978  0.00  0.00    -0.012 A 
ATOM      4  C3A BZF d   1      -0.721   3.628  -3.803  0.00  0.00    -0.107 A 
ATOM      5  C4  BZF d   1       0.466   3.951  -4.396  0.00  0.00     0.055 A 
ATOM      6  C5  BZF d   1       1.609   3.370  -3.945  0.00  0.00    -0.016 A 
ATOM      7  C6  BZF d   1       1.602   2.467  -2.903  0.00  0.00     0.022 A 
ATOM      8  C7  BZF d   1       0.448   2.111  -2.287  0.00  0.00     0.029 A 
ATOM      9  C7A BZF d   1      -0.712   2.672  -2.762  0.00  0.00     0.058 A 
ENDROOT
TORSDOF 0
ENDMDL
