MODEL 1
REMARK minimizedAffinity 11.8845329
REMARK minimizedRMSD -1
REMARK  0 active torsions:
REMARK  status: ('A' for Active; 'I' for Inactive)
ROOT
ATOM      1  O1  BZF d   1      -4.874   4.765  -3.760  0.00  0.00    -0.204 OA
ATOM      2  C2  BZF d   1      -5.965   4.515  -4.570  0.00  0.00     0.174 A 
ATOM      3  C3  BZF d   1      -6.000   3.218  -4.939  0.00  0.00    -0.012 A 
ATOM      4  C3A BZF d   1      -4.911   2.601  -4.247  0.00  0.00    -0.107 A 
ATOM      5  C4  BZF d   1      -4.437   1.321  -4.194  0.00  0.00     0.055 A 
ATOM      6  C5  BZF d   1      -3.310   1.063  -3.480  0.00  0.00    -0.016 A 
ATOM      7  C6  BZF d   1      -2.629   2.060  -2.812  0.00  0.00     0.022 A 
ATOM      8  C7  BZF d   1      -3.063   3.344  -2.832  0.00  0.00     0.029 A 
ATOM      9  C7A BZF d   1      -4.221   3.602  -3.525  0.00  0.00     0.058 A 
ENDROOT
TORSDOF 0
ENDMDL
