MODEL 1
REMARK minimizedAffinity -3.95971918
REMARK minimizedRMSD -1
REMARK  0 active torsions:
REMARK  status: ('A' for Active; 'I' for Inactive)
ROOT
ATOM      1  O1  BZF d   1       0.320   1.413  -1.809  0.00  0.00    -0.204 OA
ATOM      2  C2  BZF d   1      -0.672   1.940  -2.613  0.00  0.00     0.174 A 
ATOM      3  C3  BZF d   1      -1.893   1.663  -2.112  0.00  0.00    -0.012 A 
ATOM      4  C3A BZF d   1      -1.647   0.995  -0.871  0.00  0.00    -0.107 A 
ATOM      5  C4  BZF d   1      -2.462   0.484   0.098  0.00  0.00     0.055 A 
ATOM      6  C5  BZF d   1      -1.906  -0.171   1.151  0.00  0.00    -0.016 A 
ATOM      7  C6  BZF d   1      -0.542  -0.339   1.264  0.00  0.00     0.022 A 
ATOM      8  C7  BZF d   1       0.308   0.155   0.331  0.00  0.00     0.029 A 
ATOM      9  C7A BZF d   1      -0.249   0.846  -0.718  0.00  0.00     0.058 A 
ENDROOT
TORSDOF 0
ENDMDL
