MODEL 1
REMARK minimizedAffinity -3.37894559
REMARK minimizedRMSD -1
REMARK  0 active torsions:
REMARK  status: ('A' for Active; 'I' for Inactive)
ROOT
ATOM      1  O1  BZF d   1       0.509   1.490   0.044  0.00  0.00    -0.204 OA
ATOM      2  C2  BZF d   1      -0.086   0.306   0.436  0.00  0.00     0.174 A 
ATOM      3  C3  BZF d   1      -1.087  -0.027  -0.405  0.00  0.00    -0.012 A 
ATOM      4  C3A BZF d   1      -1.058   0.965  -1.436  0.00  0.00    -0.107 A 
ATOM      5  C4  BZF d   1      -1.797   1.166  -2.566  0.00  0.00     0.055 A 
ATOM      6  C5  BZF d   1      -1.563   2.271  -3.321  0.00  0.00    -0.016 A 
ATOM      7  C6  BZF d   1      -0.601   3.197  -2.973  0.00  0.00     0.022 A 
ATOM      8  C7  BZF d   1       0.161   3.038  -1.864  0.00  0.00     0.029 A 
ATOM      9  C7A BZF d   1      -0.051   1.906  -1.117  0.00  0.00     0.058 A 
ENDROOT
TORSDOF 0
ENDMDL
