MODEL 1
REMARK minimizedAffinity -3.8865509
REMARK minimizedRMSD -1
REMARK  0 active torsions:
REMARK  status: ('A' for Active; 'I' for Inactive)
ROOT
ATOM      1  O1  BZF d   1       0.705  -0.686  -1.114  0.00  0.00    -0.204 OA
ATOM      2  C2  BZF d   1      -0.435   0.080  -0.970  0.00  0.00     0.174 A 
ATOM      3  C3  BZF d   1      -0.923  -0.019   0.284  0.00  0.00    -0.012 A 
ATOM      4  C3A BZF d   1       0.021  -0.830   0.991  0.00  0.00    -0.107 A 
ATOM      5  C4  BZF d   1       0.097  -1.272   2.281  0.00  0.00     0.055 A 
ATOM      6  C5  BZF d   1       1.109  -2.108   2.633  0.00  0.00    -0.016 A 
ATOM      7  C6  BZF d   1       2.056  -2.526   1.722  0.00  0.00     0.022 A 
ATOM      8  C7  BZF d   1       2.024  -2.110   0.432  0.00  0.00     0.029 A 
ATOM      9  C7A BZF d   1       1.022  -1.239   0.081  0.00  0.00     0.058 A 
ENDROOT
TORSDOF 0
ENDMDL
