MODEL 1
REMARK minimizedAffinity -2.58835626
REMARK minimizedRMSD -1
REMARK  0 active torsions:
REMARK  status: ('A' for Active; 'I' for Inactive)
ROOT
ATOM      1  O1  BZF d   1       1.567  -1.619  -0.414  0.00  0.00    -0.204 OA
ATOM      2  C2  BZF d   1       2.310  -2.554   0.281  0.00  0.00     0.174 A 
ATOM      3  C3  BZF d   1       1.946  -2.586   1.579  0.00  0.00    -0.012 A 
ATOM      4  C3A BZF d   1       0.847  -1.676   1.684  0.00  0.00    -0.107 A 
ATOM      5  C4  BZF d   1       0.046  -1.286   2.720  0.00  0.00     0.055 A 
ATOM      6  C5  BZF d   1      -0.889  -0.324   2.505  0.00  0.00    -0.016 A 
ATOM      7  C6  BZF d   1      -1.048   0.272   1.272  0.00  0.00     0.022 A 
ATOM      8  C7  BZF d   1      -0.281  -0.085   0.213  0.00  0.00     0.029 A 
ATOM      9  C7A BZF d   1       0.643  -1.080   0.418  0.00  0.00     0.058 A 
ENDROOT
TORSDOF 0
ENDMDL
