MODEL 1
REMARK minimizedAffinity 0.604070187
REMARK minimizedRMSD -1
REMARK  0 active torsions:
REMARK  status: ('A' for Active; 'I' for Inactive)
ROOT
ATOM      1  O1  BZF d   1      -3.450   4.261  -2.568  0.00  0.00    -0.204 OA
ATOM      2  C2  BZF d   1      -4.495   3.359  -2.517  0.00  0.00     0.174 A 
ATOM      3  C3  BZF d   1      -4.036   2.092  -2.548  0.00  0.00    -0.012 A 
ATOM      4  C3A BZF d   1      -2.610   2.208  -2.529  0.00  0.00    -0.107 A 
ATOM      5  C4  BZF d   1      -1.593   1.297  -2.529  0.00  0.00     0.055 A 
ATOM      6  C5  BZF d   1      -0.309   1.739  -2.583  0.00  0.00    -0.016 A 
ATOM      7  C6  BZF d   1      -0.006   3.083  -2.643  0.00  0.00     0.022 A 
ATOM      8  C7  BZF d   1      -0.980   4.025  -2.641  0.00  0.00     0.029 A 
ATOM      9  C7A BZF d   1      -2.278   3.583  -2.553  0.00  0.00     0.058 A 
ENDROOT
TORSDOF 0
ENDMDL
