MODEL 1
REMARK minimizedAffinity -2.09373069
REMARK minimizedRMSD -1
REMARK  0 active torsions:
REMARK  status: ('A' for Active; 'I' for Inactive)
ROOT
ATOM      1  O1  BZF d   1       0.198   0.045  -0.643  0.00  0.00    -0.204 OA
ATOM      2  C2  BZF d   1      -0.818   0.882  -0.225  0.00  0.00     0.174 A 
ATOM      3  C3  BZF d   1      -1.185   0.594   1.041  0.00  0.00    -0.012 A 
ATOM      4  C3A BZF d   1      -0.283  -0.430   1.470  0.00  0.00    -0.107 A 
ATOM      5  C4  BZF d   1      -0.132  -1.118   2.640  0.00  0.00     0.055 A 
ATOM      6  C5  BZF d   1       0.798  -2.107   2.709  0.00  0.00    -0.016 A 
ATOM      7  C6  BZF d   1       1.590  -2.436   1.628  0.00  0.00     0.022 A 
ATOM      8  C7  BZF d   1       1.480  -1.779   0.449  0.00  0.00     0.029 A 
ATOM      9  C7A BZF d   1       0.563  -0.757   0.385  0.00  0.00     0.058 A 
ENDROOT
TORSDOF 0
ENDMDL
