MODEL 1
REMARK minimizedAffinity 0.532935262
REMARK minimizedRMSD -1
REMARK  0 active torsions:
REMARK  status: ('A' for Active; 'I' for Inactive)
ROOT
ATOM      1  O1  BZF d   1       0.048  -1.311   2.979  0.00  0.00    -0.204 OA
ATOM      2  C2  BZF d   1       1.117  -2.022   2.469  0.00  0.00     0.174 A 
ATOM      3  C3  BZF d   1       1.353  -1.677   1.187  0.00  0.00    -0.012 A 
ATOM      4  C3A BZF d   1       0.429  -0.621   0.905  0.00  0.00    -0.107 A 
ATOM      5  C4  BZF d   1       0.187   0.145  -0.199  0.00  0.00     0.055 A 
ATOM      6  C5  BZF d   1      -0.835   1.040  -0.171  0.00  0.00    -0.016 A 
ATOM      7  C6  BZF d   1      -1.638   1.191   0.941  0.00  0.00     0.022 A 
ATOM      8  C7  BZF d   1      -1.433   0.457   2.062  0.00  0.00     0.029 A 
ATOM      9  C7A BZF d   1      -0.380  -0.425   2.048  0.00  0.00     0.058 A 
ENDROOT
TORSDOF 0
ENDMDL
