MODEL 1
REMARK minimizedAffinity -1.70192516
REMARK minimizedRMSD -1
REMARK  0 active torsions:
REMARK  status: ('A' for Active; 'I' for Inactive)
ROOT
ATOM      1  N1  IND d   1       1.869  -0.122  -0.040  0.00  0.00    -0.196 N 
ATOM      2  C2  IND d   1       1.621  -0.711  -1.248  0.00  0.00     0.054 A 
ATOM      3  C3  IND d   1       0.290  -0.849  -1.440  0.00  0.00    -0.031 A 
ATOM      4  C4  IND d   1      -1.665  -0.086   0.051  0.00  0.00     0.051 A 
ATOM      5  C5  IND d   1      -1.937   0.466   1.271  0.00  0.00    -0.031 A 
ATOM      6  C6  IND d   1      -0.934   0.861   2.133  0.00  0.00     0.015 A 
ATOM      7  C7  IND d   1       0.384   0.729   1.800  0.00  0.00    -0.016 A 
ATOM      8  C8  IND d   1       0.664   0.162   0.565  0.00  0.00    -0.047 A 
ATOM      9  C9  IND d   1      -0.349  -0.280  -0.296  0.00  0.00    -0.096 A 
ATOM     10  HN1 IND d   1       2.647   0.044   0.287  0.00  0.00     0.298 HD
ENDROOT
TORSDOF 0
ENDMDL
