MODEL 1
REMARK minimizedAffinity -2.28414106
REMARK minimizedRMSD -1
REMARK  0 active torsions:
REMARK  status: ('A' for Active; 'I' for Inactive)
ROOT
ATOM      1  N1  IND d   1      -0.748   1.742   2.421  0.00  0.00    -0.196 N 
ATOM      2  C2  IND d   1       0.513   2.198   2.158  0.00  0.00     0.054 A 
ATOM      3  C3  IND d   1       1.005   1.608   1.046  0.00  0.00    -0.031 A 
ATOM      4  C4  IND d   1      -0.125  -0.060  -0.557  0.00  0.00     0.051 A 
ATOM      5  C5  IND d   1      -1.263  -0.801  -0.713  0.00  0.00    -0.031 A 
ATOM      6  C6  IND d   1      -2.309  -0.729   0.183  0.00  0.00     0.015 A 
ATOM      7  C7  IND d   1      -2.262   0.099   1.269  0.00  0.00    -0.016 A 
ATOM      8  C8  IND d   1      -1.105   0.848   1.435  0.00  0.00    -0.047 A 
ATOM      9  C9  IND d   1      -0.023   0.747   0.552  0.00  0.00    -0.096 A 
ATOM     10  HN1 IND d   1      -1.237   1.974   3.089  0.00  0.00     0.298 HD
ENDROOT
TORSDOF 0
ENDMDL
