MODEL 1
REMARK minimizedAffinity 7.0195837
REMARK minimizedRMSD -1
REMARK  0 active torsions:
REMARK  status: ('A' for Active; 'I' for Inactive)
ROOT
ATOM      1  N1  IND d   1       0.633  -0.580  -0.121  0.00  0.00    -0.196 N 
ATOM      2  C2  IND d   1      -0.033  -0.561  -1.314  0.00  0.00     0.054 A 
ATOM      3  C3  IND d   1      -1.334  -0.247  -1.122  0.00  0.00    -0.031 A 
ATOM      4  C4  IND d   1      -2.562   0.375   1.054  0.00  0.00     0.051 A 
ATOM      5  C5  IND d   1      -2.381   0.461   2.406  0.00  0.00    -0.031 A 
ATOM      6  C6  IND d   1      -1.161   0.202   2.996  0.00  0.00     0.015 A 
ATOM      7  C7  IND d   1      -0.068  -0.143   2.252  0.00  0.00    -0.016 A 
ATOM      8  C8  IND d   1      -0.250  -0.239   0.880  0.00  0.00    -0.047 A 
ATOM      9  C9  IND d   1      -1.496  -0.018   0.279  0.00  0.00    -0.096 A 
ATOM     10  HN1 IND d   1       1.464  -0.772  -0.013  0.00  0.00     0.298 HD
ENDROOT
TORSDOF 0
ENDMDL
