MODEL 1
REMARK minimizedAffinity -2.72277093
REMARK minimizedRMSD -1
REMARK  0 active torsions:
REMARK  status: ('A' for Active; 'I' for Inactive)
ROOT
ATOM      1  N1  IND d   1      -1.695   0.187   2.288  0.00  0.00    -0.196 N 
ATOM      2  C2  IND d   1      -0.972   1.118   2.981  0.00  0.00     0.054 A 
ATOM      3  C3  IND d   1       0.085   1.534   2.248  0.00  0.00    -0.031 A 
ATOM      4  C4  IND d   1       0.761   0.897  -0.153  0.00  0.00     0.051 A 
ATOM      5  C5  IND d   1       0.429   0.058  -1.179  0.00  0.00    -0.031 A 
ATOM      6  C6  IND d   1      -0.651  -0.797  -1.101  0.00  0.00     0.015 A 
ATOM      7  C7  IND d   1      -1.450  -0.836   0.006  0.00  0.00    -0.016 A 
ATOM      8  C8  IND d   1      -1.112   0.010   1.053  0.00  0.00    -0.047 A 
ATOM      9  C9  IND d   1       0.008   0.849   0.996  0.00  0.00    -0.096 A 
ATOM     10  HN1 IND d   1      -2.396  -0.219   2.576  0.00  0.00     0.298 HD
ENDROOT
TORSDOF 0
ENDMDL
