MODEL 1
REMARK minimizedAffinity -4.36829615
REMARK minimizedRMSD -1
REMARK  0 active torsions:
REMARK  status: ('A' for Active; 'I' for Inactive)
ROOT
ATOM      1  N1  IND d   1       0.754   0.471  -0.927  0.00  0.00    -0.196 N 
ATOM      2  C2  IND d   1       0.369  -0.552  -0.106  0.00  0.00     0.054 A 
ATOM      3  C3  IND d   1      -0.256  -1.516  -0.817  0.00  0.00    -0.031 A 
ATOM      4  C4  IND d   1      -0.667  -1.671  -3.354  0.00  0.00     0.051 A 
ATOM      5  C5  IND d   1      -0.529  -0.960  -4.513  0.00  0.00    -0.031 A 
ATOM      6  C6  IND d   1       0.059   0.289  -4.536  0.00  0.00     0.015 A 
ATOM      7  C7  IND d   1       0.543   0.870  -3.399  0.00  0.00    -0.016 A 
ATOM      8  C8  IND d   1       0.397   0.154  -2.219  0.00  0.00    -0.047 A 
ATOM      9  C9  IND d   1      -0.237  -1.095  -2.182  0.00  0.00    -0.096 A 
ATOM     10  HN1 IND d   1       1.153   1.191  -0.678  0.00  0.00     0.298 HD
ENDROOT
TORSDOF 0
ENDMDL
