MODEL 1
REMARK minimizedAffinity 9.64410496
REMARK minimizedRMSD -1
REMARK  0 active torsions:
REMARK  status: ('A' for Active; 'I' for Inactive)
ROOT
ATOM      1  N1  IND d   1       3.803  -1.808  -1.020  0.00  0.00    -0.196 N 
ATOM      2  C2  IND d   1       2.725  -1.986  -0.198  0.00  0.00     0.054 A 
ATOM      3  C3  IND d   1       1.677  -1.248  -0.629  0.00  0.00    -0.031 A 
ATOM      4  C4  IND d   1       1.477   0.244  -2.717  0.00  0.00     0.051 A 
ATOM      5  C5  IND d   1       2.210   0.748  -3.755  0.00  0.00    -0.031 A 
ATOM      6  C6  IND d   1       3.537   0.418  -3.939  0.00  0.00     0.015 A 
ATOM      7  C7  IND d   1       4.180  -0.442  -3.095  0.00  0.00    -0.016 A 
ATOM      8  C8  IND d   1       3.442  -0.951  -2.036  0.00  0.00    -0.047 A 
ATOM      9  C9  IND d   1       2.107  -0.586  -1.820  0.00  0.00    -0.096 A 
ATOM     10  HN1 IND d   1       4.576  -2.170  -0.919  0.00  0.00     0.298 HD
ENDROOT
TORSDOF 0
ENDMDL
