MODEL 1
REMARK minimizedAffinity 3.41992998
REMARK minimizedRMSD -1
REMARK  0 active torsions:
REMARK  status: ('A' for Active; 'I' for Inactive)
ROOT
ATOM      1  C   UNL d   1      -2.370  -0.380   1.341  0.00  0.00     0.023 A 
ATOM      2  C1  UNL d   1      -2.246  -1.265   0.271  0.00  0.00     0.003 A 
ATOM      3  C2  UNL d   1      -3.287  -1.400  -0.650  0.00  0.00     0.048 A 
ATOM      4  C3  UNL d   1      -4.449  -0.645  -0.495  0.00  0.00     0.023 A 
ATOM      5  C4  UNL d   1      -4.578   0.243   0.574  0.00  0.00     0.048 A 
ATOM      6  C5  UNL d   1      -3.535   0.373   1.493  0.00  0.00     0.003 A 
ATOM      7  I   UNL d   1      -6.000  -0.844  -1.865  0.00  0.00    -0.146 I 
ENDROOT
TORSDOF 0
ENDMDL
