MODEL 1
REMARK minimizedAffinity 7.45281601
REMARK minimizedRMSD -1
REMARK  0 active torsions:
REMARK  status: ('A' for Active; 'I' for Inactive)
ROOT
ATOM      1  C   UNL d   1      -2.843  -0.965   0.493  0.00  0.00     0.023 A 
ATOM      2  C1  UNL d   1      -2.421  -1.378  -0.770  0.00  0.00     0.003 A 
ATOM      3  C2  UNL d   1      -1.977  -2.687  -0.967  0.00  0.00     0.048 A 
ATOM      4  C3  UNL d   1      -1.960  -3.580   0.105  0.00  0.00     0.023 A 
ATOM      5  C4  UNL d   1      -2.383  -3.171   1.371  0.00  0.00     0.048 A 
ATOM      6  C5  UNL d   1      -2.824  -1.861   1.563  0.00  0.00     0.003 A 
ATOM      7  I   UNL d   1      -1.301  -5.529  -0.185  0.00  0.00    -0.146 I 
ENDROOT
TORSDOF 0
ENDMDL
