MODEL 1
REMARK minimizedAffinity 1.76692188
REMARK minimizedRMSD -1
REMARK  0 active torsions:
REMARK  status: ('A' for Active; 'I' for Inactive)
ROOT
ATOM      1  C   UNL d   1      -5.997  -0.876  -1.035  0.00  0.00     0.023 A 
ATOM      2  C1  UNL d   1      -5.233   0.279  -0.865  0.00  0.00     0.003 A 
ATOM      3  C2  UNL d   1      -4.305   0.357   0.175  0.00  0.00     0.048 A 
ATOM      4  C3  UNL d   1      -4.146  -0.723   1.042  0.00  0.00     0.023 A 
ATOM      5  C4  UNL d   1      -4.907  -1.881   0.876  0.00  0.00     0.048 A 
ATOM      6  C5  UNL d   1      -5.835  -1.954  -0.165  0.00  0.00     0.003 A 
ATOM      7  I   UNL d   1      -2.765  -0.610   2.592  0.00  0.00    -0.146 I 
ENDROOT
TORSDOF 0
ENDMDL
