MODEL 1
REMARK minimizedAffinity 16.8040352
REMARK minimizedRMSD -1
REMARK  0 active torsions:
REMARK  status: ('A' for Active; 'I' for Inactive)
ROOT
ATOM      1  C   UNL d   1      -0.121  -0.613   4.942  0.00  0.00     0.023 A 
ATOM      2  C1  UNL d   1       1.052  -0.619   5.696  0.00  0.00     0.003 A 
ATOM      3  C2  UNL d   1       1.682  -1.828   5.999  0.00  0.00     0.048 A 
ATOM      4  C3  UNL d   1       1.134  -3.027   5.545  0.00  0.00     0.023 A 
ATOM      5  C4  UNL d   1      -0.040  -3.025   4.789  0.00  0.00     0.048 A 
ATOM      6  C5  UNL d   1      -0.667  -1.814   4.489  0.00  0.00     0.003 A 
ATOM      7  I   UNL d   1       2.070  -4.827   5.994  0.00  0.00    -0.146 I 
ENDROOT
TORSDOF 0
ENDMDL
