MODEL 1
REMARK minimizedAffinity 15.0501356
REMARK minimizedRMSD -1
REMARK  0 active torsions:
REMARK  status: ('A' for Active; 'I' for Inactive)
ROOT
ATOM      1  C   UNL d   1      -5.839   3.781  -4.389  0.00  0.00     0.023 A 
ATOM      2  C1  UNL d   1      -5.710   2.848  -3.360  0.00  0.00     0.003 A 
ATOM      3  C2  UNL d   1      -5.724   3.268  -2.028  0.00  0.00     0.048 A 
ATOM      4  C3  UNL d   1      -5.869   4.623  -1.732  0.00  0.00     0.023 A 
ATOM      5  C4  UNL d   1      -6.000   5.560  -2.758  0.00  0.00     0.048 A 
ATOM      6  C5  UNL d   1      -5.984   5.136  -4.088  0.00  0.00     0.003 A 
ATOM      7  I   UNL d   1      -5.890   5.250   0.249  0.00  0.00    -0.146 I 
ENDROOT
TORSDOF 0
ENDMDL
