MODEL 1
REMARK minimizedAffinity 6.51759243
REMARK minimizedRMSD -1
REMARK  0 active torsions:
REMARK  status: ('A' for Active; 'I' for Inactive)
ROOT
ATOM      1  C   UNL d   1       4.348   1.072  -1.625  0.00  0.00     0.023 A 
ATOM      2  C1  UNL d   1       3.623   0.300  -0.716  0.00  0.00     0.003 A 
ATOM      3  C2  UNL d   1       4.085   0.143   0.592  0.00  0.00     0.048 A 
ATOM      4  C3  UNL d   1       5.271   0.762   0.986  0.00  0.00     0.023 A 
ATOM      5  C4  UNL d   1       5.999   1.536   0.080  0.00  0.00     0.048 A 
ATOM      6  C5  UNL d   1       5.534   1.689  -1.227  0.00  0.00     0.003 A 
ATOM      7  I   UNL d   1       5.960   0.530   2.933  0.00  0.00    -0.146 I 
ENDROOT
TORSDOF 0
ENDMDL
