MODEL 1
REMARK minimizedAffinity 10.575017
REMARK minimizedRMSD -1
REMARK  0 active torsions:
REMARK  status: ('A' for Active; 'I' for Inactive)
ROOT
ATOM      1  C   UNL d   1       6.000   0.790   3.759  0.00  0.00     0.023 A 
ATOM      2  C1  UNL d   1       5.626  -0.303   2.975  0.00  0.00     0.003 A 
ATOM      3  C2  UNL d   1       5.250  -0.112   1.644  0.00  0.00     0.048 A 
ATOM      4  C3  UNL d   1       5.251   1.172   1.102  0.00  0.00     0.023 A 
ATOM      5  C4  UNL d   1       5.625   2.268   1.882  0.00  0.00     0.048 A 
ATOM      6  C5  UNL d   1       5.999   2.073   3.213  0.00  0.00     0.003 A 
ATOM      7  I   UNL d   1       4.692   1.458  -0.879  0.00  0.00    -0.146 I 
ENDROOT
TORSDOF 0
ENDMDL
