MODEL 1
REMARK minimizedAffinity 8.36564636
REMARK minimizedRMSD -1
REMARK  0 active torsions:
REMARK  status: ('A' for Active; 'I' for Inactive)
ROOT
ATOM      1  C   UNL d   1       5.196  -0.030   2.252  0.00  0.00     0.023 A 
ATOM      2  C1  UNL d   1       5.999   0.871   2.952  0.00  0.00     0.003 A 
ATOM      3  C2  UNL d   1       5.422   1.962   3.604  0.00  0.00     0.048 A 
ATOM      4  C3  UNL d   1       4.041   2.147   3.553  0.00  0.00     0.023 A 
ATOM      5  C4  UNL d   1       3.233   1.248   2.855  0.00  0.00     0.048 A 
ATOM      6  C5  UNL d   1       3.815   0.159   2.203  0.00  0.00     0.003 A 
ATOM      7  I   UNL d   1       3.179   3.770   4.523  0.00  0.00    -0.146 I 
ENDROOT
TORSDOF 0
ENDMDL
