MODEL 1
REMARK minimizedAffinity 1.8813591
REMARK minimizedRMSD -1
REMARK  0 active torsions:
REMARK  status: ('A' for Active; 'I' for Inactive)
ROOT
ATOM      1  C4' PXY d   1      -0.188   0.031  -2.074  0.00  0.00     0.077 C 
ATOM      2  C1' PXY d   1       2.736   0.477   2.893  0.00  0.00     0.077 C 
ATOM      3  C1  PXY d   1       1.958   0.365   1.596  0.00  0.00    -0.082 A 
ATOM      4  C2  PXY d   1       2.334  -0.514   0.682  0.00  0.00     0.003 A 
ATOM      5  C3  PXY d   1       1.662  -0.607  -0.509  0.00  0.00     0.003 A 
ATOM      6  C4  PXY d   1       0.561   0.172  -0.746  0.00  0.00    -0.082 A 
ATOM      7  C5  PXY d   1       0.165   1.065   0.186  0.00  0.00     0.003 A 
ATOM      8  C6  PXY d   1       0.886   1.172   1.372  0.00  0.00     0.003 A 
ENDROOT
TORSDOF 0
ENDMDL
