MODEL 1
REMARK minimizedAffinity -2.97483921
REMARK minimizedRMSD -1
REMARK  0 active torsions:
REMARK  status: ('A' for Active; 'I' for Inactive)
ROOT
ATOM      1  C4' PXY d   1       0.057   1.498   4.032  0.00  0.00     0.077 C 
ATOM      2  C1' PXY d   1      -0.803  -0.620  -1.277  0.00  0.00     0.077 C 
ATOM      3  C1  PXY d   1      -0.589  -0.059   0.115  0.00  0.00    -0.082 A 
ATOM      4  C2  PXY d   1       0.641   0.098   0.575  0.00  0.00     0.003 A 
ATOM      5  C3  PXY d   1       0.852   0.574   1.843  0.00  0.00     0.003 A 
ATOM      6  C4  PXY d   1      -0.206   0.944   2.629  0.00  0.00    -0.082 A 
ATOM      7  C5  PXY d   1      -1.464   0.797   2.163  0.00  0.00     0.003 A 
ATOM      8  C6  PXY d   1      -1.658   0.273   0.888  0.00  0.00     0.003 A 
ENDROOT
TORSDOF 0
ENDMDL
