MODEL 1
REMARK minimizedAffinity -2.45577407
REMARK minimizedRMSD -1
REMARK  0 active torsions:
REMARK  status: ('A' for Active; 'I' for Inactive)
ROOT
ATOM      1  C4' PXY d   1       2.653   1.192   0.564  0.00  0.00     0.077 C 
ATOM      2  C1' PXY d   1      -2.400  -1.308  -0.714  0.00  0.00     0.077 C 
ATOM      3  C1  PXY d   1      -1.071  -0.663  -0.372  0.00  0.00    -0.082 A 
ATOM      4  C2  PXY d   1      -0.978   0.656  -0.322  0.00  0.00     0.003 A 
ATOM      5  C3  PXY d   1       0.224   1.256  -0.047  0.00  0.00     0.003 A 
ATOM      6  C4  PXY d   1       1.329   0.498   0.233  0.00  0.00    -0.082 A 
ATOM      7  C5  PXY d   1       1.239  -0.849   0.194  0.00  0.00     0.003 A 
ATOM      8  C6  PXY d   1       0.020  -1.438  -0.128  0.00  0.00     0.003 A 
ENDROOT
TORSDOF 0
ENDMDL
