MODEL 1
REMARK minimizedAffinity -0.346807301
REMARK minimizedRMSD -1
REMARK  0 active torsions:
REMARK  status: ('A' for Active; 'I' for Inactive)
ROOT
ATOM      1  C4' PXY d   1      -3.976  -0.222  -1.263  0.00  0.00     0.077 C 
ATOM      2  C1' PXY d   1       1.181  -0.607   1.320  0.00  0.00     0.077 C 
ATOM      3  C1  PXY d   1      -0.166  -0.508   0.631  0.00  0.00    -0.082 A 
ATOM      4  C2  PXY d   1      -1.164   0.118   1.233  0.00  0.00     0.003 A 
ATOM      5  C3  PXY d   1      -2.397   0.190   0.638  0.00  0.00     0.003 A 
ATOM      6  C4  PXY d   1      -2.596  -0.339  -0.609  0.00  0.00    -0.082 A 
ATOM      7  C5  PXY d   1      -1.580  -0.970  -1.234  0.00  0.00     0.003 A 
ATOM      8  C6  PXY d   1      -0.347  -1.067  -0.596  0.00  0.00     0.003 A 
ENDROOT
TORSDOF 0
ENDMDL
