MODEL 1
REMARK minimizedAffinity 1.13413799
REMARK minimizedRMSD -1
REMARK  0 active torsions:
REMARK  status: ('A' for Active; 'I' for Inactive)
ROOT
ATOM      1  C4' PXY d   1       3.750  -1.910   5.641  0.00  0.00     0.077 C 
ATOM      2  C1' PXY d   1      -1.715  -1.672   3.773  0.00  0.00     0.077 C 
ATOM      3  C1  PXY d   1      -0.278  -1.738   4.251  0.00  0.00    -0.082 A 
ATOM      4  C2  PXY d   1      -0.023  -1.937   5.534  0.00  0.00     0.003 A 
ATOM      5  C3  PXY d   1       1.270  -1.967   5.988  0.00  0.00     0.003 A 
ATOM      6  C4  PXY d   1       2.315  -1.846   5.112  0.00  0.00    -0.082 A 
ATOM      7  C5  PXY d   1       2.064  -1.653   3.800  0.00  0.00     0.003 A 
ATOM      8  C6  PXY d   1       0.743  -1.584   3.365  0.00  0.00     0.003 A 
ENDROOT
TORSDOF 0
ENDMDL
