MODEL 1
REMARK minimizedAffinity -0.185798526
REMARK minimizedRMSD -1
REMARK  0 active torsions:
REMARK  status: ('A' for Active; 'I' for Inactive)
ROOT
ATOM      1  C4' PXY d   1       1.417  -1.773   4.400  0.00  0.00     0.077 C 
ATOM      2  C1' PXY d   1      -1.782   0.698   0.267  0.00  0.00     0.077 C 
ATOM      3  C1  PXY d   1      -0.935   0.045   1.342  0.00  0.00    -0.082 A 
ATOM      4  C2  PXY d   1      -1.488  -0.293   2.495  0.00  0.00     0.003 A 
ATOM      5  C3  PXY d   1      -0.729  -0.855   3.490  0.00  0.00     0.003 A 
ATOM      6  C4  PXY d   1       0.598  -1.121   3.282  0.00  0.00    -0.082 A 
ATOM      7  C5  PXY d   1       1.167  -0.788   2.105  0.00  0.00     0.003 A 
ATOM      8  C6  PXY d   1       0.389  -0.181   1.123  0.00  0.00     0.003 A 
ENDROOT
TORSDOF 0
ENDMDL
