MODEL 1
REMARK minimizedAffinity 6.95396233
REMARK minimizedRMSD -1
REMARK  0 active torsions:
REMARK  status: ('A' for Active; 'I' for Inactive)
ROOT
ATOM      1  C4' PXY d   1      -1.547   4.096   1.846  0.00  0.00     0.077 C 
ATOM      2  C1' PXY d   1      -2.660  -1.121  -0.382  0.00  0.00     0.077 C 
ATOM      3  C1  PXY d   1      -2.374   0.244   0.214  0.00  0.00    -0.082 A 
ATOM      4  C2  PXY d   1      -2.219   1.287  -0.585  0.00  0.00     0.003 A 
ATOM      5  C3  PXY d   1      -1.928   2.522  -0.065  0.00  0.00     0.003 A 
ATOM      6  C4  PXY d   1      -1.847   2.701   1.290  0.00  0.00    -0.082 A 
ATOM      7  C5  PXY d   1      -2.014   1.644   2.112  0.00  0.00     0.003 A 
ATOM      8  C6  PXY d   1      -2.268   0.391   1.562  0.00  0.00     0.003 A 
ENDROOT
TORSDOF 0
ENDMDL
