MODEL 1
REMARK minimizedAffinity 1.32512987
REMARK minimizedRMSD -1
REMARK  0 active torsions:
REMARK  status: ('A' for Active; 'I' for Inactive)
ROOT
ATOM      1  C4' PXY d   1      -3.120  -1.406   3.822  0.00  0.00     0.077 C 
ATOM      2  C1' PXY d   1       1.602   0.936   1.449  0.00  0.00     0.077 C 
ATOM      3  C1  PXY d   1       0.370   0.310   2.072  0.00  0.00    -0.082 A 
ATOM      4  C2  PXY d   1      -0.824   0.822   1.818  0.00  0.00     0.003 A 
ATOM      5  C3  PXY d   1      -1.945   0.289   2.399  0.00  0.00     0.003 A 
ATOM      6  C4  PXY d   1      -1.850  -0.813   3.207  0.00  0.00    -0.082 A 
ATOM      7  C5  PXY d   1      -0.637  -1.348   3.462  0.00  0.00     0.003 A 
ATOM      8  C6  PXY d   1       0.494  -0.766   2.895  0.00  0.00     0.003 A 
ENDROOT
TORSDOF 0
ENDMDL
