MODEL 1
REMARK minimizedAffinity -3.884799
REMARK minimizedRMSD -1
REMARK  0 active torsions:
REMARK  status: ('A' for Active; 'I' for Inactive)
ROOT
ATOM      1  C4' PXY d   1      -3.121  -0.650  -1.383  0.00  0.00     0.077 C 
ATOM      2  C1' PXY d   1       2.370  -1.522   0.197  0.00  0.00     0.077 C 
ATOM      3  C1  PXY d   1       0.927  -1.289  -0.205  0.00  0.00    -0.082 A 
ATOM      4  C2  PXY d   1       0.399  -2.001  -1.187  0.00  0.00     0.003 A 
ATOM      5  C3  PXY d   1      -0.895  -1.781  -1.585  0.00  0.00     0.003 A 
ATOM      6  C4  PXY d   1      -1.672  -0.858  -0.936  0.00  0.00    -0.082 A 
ATOM      7  C5  PXY d   1      -1.143  -0.135   0.073  0.00  0.00     0.003 A 
ATOM      8  C6  PXY d   1       0.185  -0.345   0.435  0.00  0.00     0.003 A 
ENDROOT
TORSDOF 0
ENDMDL
