MODEL 1
REMARK minimizedAffinity 0.36503455
REMARK minimizedRMSD -1
REMARK  0 active torsions:
REMARK  status: ('A' for Active; 'I' for Inactive)
ROOT
ATOM      1  C4' PXY d   1       0.407  -5.935  -6.000  0.00  0.00     0.077 C 
ATOM      2  C1' PXY d   1       0.421  -2.439  -1.396  0.00  0.00     0.077 C 
ATOM      3  C1  PXY d   1       0.410  -3.347  -2.610  0.00  0.00    -0.082 A 
ATOM      4  C2  PXY d   1       0.687  -4.633  -2.467  0.00  0.00     0.003 A 
ATOM      5  C3  PXY d   1       0.712  -5.463  -3.558  0.00  0.00     0.003 A 
ATOM      6  C4  PXY d   1       0.398  -4.982  -4.801  0.00  0.00    -0.082 A 
ATOM      7  C5  PXY d   1       0.104  -3.674  -4.954  0.00  0.00     0.003 A 
ATOM      8  C6  PXY d   1       0.124  -2.840  -3.839  0.00  0.00     0.003 A 
ENDROOT
TORSDOF 0
ENDMDL
