MODEL 1
REMARK minimizedAffinity -2.73617315
REMARK minimizedRMSD -1
REMARK  0 active torsions:
REMARK  status: ('A' for Active; 'I' for Inactive)
ROOT
ATOM      1  C   UNL d   1       1.140  -1.928  -1.589  0.00  0.00     0.172 C 
ATOM      2  N   UNL d   1       0.734  -0.624  -1.119  0.00  0.00    -0.070 N 
ATOM      3  C1  UNL d   1       1.417   0.545  -1.320  0.00  0.00    -0.004 A 
ATOM      4  C2  UNL d   1       0.704   1.560  -0.719  0.00  0.00    -0.047 A 
ATOM      5  C3  UNL d   1      -0.448   0.980  -0.136  0.00  0.00    -0.047 A 
ATOM      6  C4  UNL d   1      -0.404  -0.373  -0.399  0.00  0.00    -0.004 A 
ENDROOT
TORSDOF 0
ENDMDL
