MODEL 1
REMARK minimizedAffinity -3.06147027
REMARK minimizedRMSD -1
REMARK  0 active torsions:
REMARK  status: ('A' for Active; 'I' for Inactive)
ROOT
ATOM      1  C   UNL d   1      -0.021  -0.578   1.468  0.00  0.00     0.172 C 
ATOM      2  N   UNL d   1      -0.623   0.477   0.687  0.00  0.00    -0.070 N 
ATOM      3  C1  UNL d   1      -0.191   0.910  -0.538  0.00  0.00    -0.004 A 
ATOM      4  C2  UNL d   1      -1.029   1.924  -0.947  0.00  0.00    -0.047 A 
ATOM      5  C3  UNL d   1      -1.998   2.108   0.068  0.00  0.00    -0.047 A 
ATOM      6  C4  UNL d   1      -1.724   1.199   1.068  0.00  0.00    -0.004 A 
ENDROOT
TORSDOF 0
ENDMDL
