MODEL 1
REMARK minimizedAffinity -2.0262897
REMARK minimizedRMSD -1
REMARK  0 active torsions:
REMARK  status: ('A' for Active; 'I' for Inactive)
ROOT
ATOM      1  C   UNL d   1       0.742  -0.874  -0.826  0.00  0.00     0.172 C 
ATOM      2  N   UNL d   1      -0.091  -0.147   0.102  0.00  0.00    -0.070 N 
ATOM      3  C1  UNL d   1      -0.739   1.030  -0.160  0.00  0.00    -0.004 A 
ATOM      4  C2  UNL d   1      -1.425   1.397   0.977  0.00  0.00    -0.047 A 
ATOM      5  C3  UNL d   1      -1.181   0.406   1.957  0.00  0.00    -0.047 A 
ATOM      6  C4  UNL d   1      -0.352  -0.538   1.389  0.00  0.00    -0.004 A 
ENDROOT
TORSDOF 0
ENDMDL
