MODEL 1
REMARK minimizedAffinity -4.28758192
REMARK minimizedRMSD -1
REMARK  0 active torsions:
REMARK  status: ('A' for Active; 'I' for Inactive)
ROOT
ATOM      1  C   UNL d   1      -0.115   0.273  -0.769  0.00  0.00     0.172 C 
ATOM      2  N   UNL d   1      -0.751   1.465  -0.260  0.00  0.00    -0.070 N 
ATOM      3  C1  UNL d   1      -0.618   2.725  -0.781  0.00  0.00    -0.004 A 
ATOM      4  C2  UNL d   1      -1.380   3.581  -0.015  0.00  0.00    -0.047 A 
ATOM      5  C3  UNL d   1      -1.991   2.809   1.001  0.00  0.00    -0.047 A 
ATOM      6  C4  UNL d   1      -1.584   1.503   0.826  0.00  0.00    -0.004 A 
ENDROOT
TORSDOF 0
ENDMDL
