MODEL 1
REMARK minimizedAffinity -1.85511017
REMARK minimizedRMSD -1
REMARK  0 active torsions:
REMARK  status: ('A' for Active; 'I' for Inactive)
ROOT
ATOM      1  C   UNL d   1       1.183   0.129  -1.493  0.00  0.00     0.172 C 
ATOM      2  N   UNL d   1       1.110  -1.279  -1.804  0.00  0.00    -0.070 N 
ATOM      3  C1  UNL d   1       0.596  -1.817  -2.954  0.00  0.00    -0.004 A 
ATOM      4  C2  UNL d   1       0.709  -3.187  -2.867  0.00  0.00    -0.047 A 
ATOM      5  C3  UNL d   1       1.310  -3.484  -1.620  0.00  0.00    -0.047 A 
ATOM      6  C4  UNL d   1       1.548  -2.284  -0.983  0.00  0.00    -0.004 A 
ENDROOT
TORSDOF 0
ENDMDL
