MODEL 1
REMARK minimizedAffinity -2.64598775
REMARK minimizedRMSD -1
REMARK  0 active torsions:
REMARK  status: ('A' for Active; 'I' for Inactive)
ROOT
ATOM      1  C   UNL d   1      -1.955   1.704   1.466  0.00  0.00     0.172 C 
ATOM      2  N   UNL d   1      -0.966   0.812   0.907  0.00  0.00    -0.070 N 
ATOM      3  C1  UNL d   1      -0.490  -0.326   1.501  0.00  0.00    -0.004 A 
ATOM      4  C2  UNL d   1       0.435  -0.891   0.650  0.00  0.00    -0.047 A 
ATOM      5  C3  UNL d   1       0.519  -0.063  -0.495  0.00  0.00    -0.047 A 
ATOM      6  C4  UNL d   1      -0.359   0.984  -0.309  0.00  0.00    -0.004 A 
ENDROOT
TORSDOF 0
ENDMDL
