MODEL 1
REMARK minimizedAffinity -3.7703588
REMARK minimizedRMSD -1
REMARK  0 active torsions:
REMARK  status: ('A' for Active; 'I' for Inactive)
ROOT
ATOM      1  C   UNL d   1      -1.852   1.888   1.176  0.00  0.00     0.172 C 
ATOM      2  N   UNL d   1      -0.945   0.796   0.912  0.00  0.00    -0.070 N 
ATOM      3  C1  UNL d   1      -0.395  -0.031   1.854  0.00  0.00    -0.004 A 
ATOM      4  C2  UNL d   1       0.410  -0.939   1.201  0.00  0.00    -0.047 A 
ATOM      5  C3  UNL d   1       0.341  -0.648  -0.182  0.00  0.00    -0.047 A 
ATOM      6  C4  UNL d   1      -0.505   0.431  -0.333  0.00  0.00    -0.004 A 
ENDROOT
TORSDOF 0
ENDMDL
