MODEL 1
REMARK minimizedAffinity -1.32668138
REMARK minimizedRMSD -1
REMARK  0 active torsions:
REMARK  status: ('A' for Active; 'I' for Inactive)
ROOT
ATOM      1  C   UNL d   1       0.908   0.104  -1.917  0.00  0.00     0.172 C 
ATOM      2  N   UNL d   1       0.803  -1.319  -2.137  0.00  0.00    -0.070 N 
ATOM      3  C1  UNL d   1       1.236  -2.294  -1.278  0.00  0.00    -0.004 A 
ATOM      4  C2  UNL d   1       0.954  -3.516  -1.849  0.00  0.00    -0.047 A 
ATOM      5  C3  UNL d   1       0.330  -3.267  -3.095  0.00  0.00    -0.047 A 
ATOM      6  C4  UNL d   1       0.249  -1.899  -3.248  0.00  0.00    -0.004 A 
ENDROOT
TORSDOF 0
ENDMDL
