MODEL 1
REMARK minimizedAffinity -3.41281986
REMARK minimizedRMSD -1
REMARK  0 active torsions:
REMARK  status: ('A' for Active; 'I' for Inactive)
ROOT
ATOM      1  C   UNL d   1       0.760   1.506  -1.376  0.00  0.00     0.172 C 
ATOM      2  N   UNL d   1      -0.211   2.022  -0.440  0.00  0.00    -0.070 N 
ATOM      3  C1  UNL d   1      -1.067   1.270   0.320  0.00  0.00    -0.004 A 
ATOM      4  C2  UNL d   1      -1.828   2.133   1.078  0.00  0.00    -0.047 A 
ATOM      5  C3  UNL d   1      -1.417   3.449   0.762  0.00  0.00    -0.047 A 
ATOM      6  C4  UNL d   1      -0.415   3.352  -0.180  0.00  0.00    -0.004 A 
ENDROOT
TORSDOF 0
ENDMDL
