MODEL 1
REMARK minimizedAffinity -4.20711899
REMARK minimizedRMSD -1
REMARK  0 active torsions:
REMARK  status: ('A' for Active; 'I' for Inactive)
ROOT
ATOM      1  C   UNL d   1       0.792  -0.275  -0.167  0.00  0.00     0.172 C 
ATOM      2  N   UNL d   1      -0.065   0.768   0.347  0.00  0.00    -0.070 N 
ATOM      3  C1  UNL d   1      -0.343   1.953  -0.279  0.00  0.00    -0.004 A 
ATOM      4  C2  UNL d   1      -1.196   2.669   0.533  0.00  0.00    -0.047 A 
ATOM      5  C3  UNL d   1      -1.438   1.887   1.688  0.00  0.00    -0.047 A 
ATOM      6  C4  UNL d   1      -0.725   0.715   1.546  0.00  0.00    -0.004 A 
ENDROOT
TORSDOF 0
ENDMDL
