MODEL 1
REMARK minimizedAffinity -3.6027143
REMARK minimizedRMSD -1
REMARK  0 active torsions:
REMARK  status: ('A' for Active; 'I' for Inactive)
ROOT
ATOM      1  C   UNL d   1      -1.397   1.549   1.573  0.00  0.00     0.172 C 
ATOM      2  N   UNL d   1      -0.502   0.856   0.676  0.00  0.00    -0.070 N 
ATOM      3  C1  UNL d   1      -0.163   1.264  -0.586  0.00  0.00    -0.004 A 
ATOM      4  C2  UNL d   1       0.710   0.335  -1.110  0.00  0.00    -0.047 A 
ATOM      5  C3  UNL d   1       0.900  -0.667  -0.129  0.00  0.00    -0.047 A 
ATOM      6  C4  UNL d   1       0.139  -0.320   0.967  0.00  0.00    -0.004 A 
ENDROOT
TORSDOF 0
ENDMDL
