MODEL 1
REMARK minimizedAffinity -3.71367121
REMARK minimizedRMSD -1
REMARK  0 active torsions:
REMARK  status: ('A' for Active; 'I' for Inactive)
ROOT
ATOM      1  C   UNL d   1       0.883  -0.593  -0.735  0.00  0.00     0.172 C 
ATOM      2  N   UNL d   1      -0.062   0.159   0.057  0.00  0.00    -0.070 N 
ATOM      3  C1  UNL d   1      -0.593   1.377  -0.278  0.00  0.00    -0.004 A 
ATOM      4  C2  UNL d   1      -1.448   1.757   0.734  0.00  0.00    -0.047 A 
ATOM      5  C3  UNL d   1      -1.429   0.733   1.711  0.00  0.00    -0.047 A 
ATOM      6  C4  UNL d   1      -0.563  -0.243   1.266  0.00  0.00    -0.004 A 
ENDROOT
TORSDOF 0
ENDMDL
