MODEL 1
REMARK minimizedAffinity -3.62625909
REMARK minimizedRMSD -1
REMARK  0 active torsions:
REMARK  status: ('A' for Active; 'I' for Inactive)
ROOT
ATOM      1  C   UNL d   1       0.715  -0.294  -0.543  0.00  0.00     0.172 C 
ATOM      2  N   UNL d   1      -0.284   0.326   0.296  0.00  0.00    -0.070 N 
ATOM      3  C1  UNL d   1      -0.363   0.213   1.658  0.00  0.00    -0.004 A 
ATOM      4  C2  UNL d   1      -1.449   0.950   2.080  0.00  0.00    -0.047 A 
ATOM      5  C3  UNL d   1      -2.043   1.525   0.931  0.00  0.00    -0.047 A 
ATOM      6  C4  UNL d   1      -1.301   1.122  -0.159  0.00  0.00    -0.004 A 
ENDROOT
TORSDOF 0
ENDMDL
