MODEL 1
REMARK minimizedAffinity -3.92683887
REMARK minimizedRMSD -1
REMARK  0 active torsions:
REMARK  status: ('A' for Active; 'I' for Inactive)
ROOT
ATOM      1  C   UNL d   1       0.740  -0.263  -0.697  0.00  0.00     0.172 C 
ATOM      2  N   UNL d   1      -0.092   0.716  -0.037  0.00  0.00    -0.070 N 
ATOM      3  C1  UNL d   1      -0.372   1.972  -0.505  0.00  0.00    -0.004 A 
ATOM      4  C2  UNL d   1      -1.197   2.590   0.410  0.00  0.00    -0.047 A 
ATOM      5  C3  UNL d   1      -1.419   1.674   1.465  0.00  0.00    -0.047 A 
ATOM      6  C4  UNL d   1      -0.724   0.522   1.163  0.00  0.00    -0.004 A 
ENDROOT
TORSDOF 0
ENDMDL
