MODEL 1
REMARK minimizedAffinity -2.92665458
REMARK minimizedRMSD -1
REMARK  0 active torsions:
REMARK  status: ('A' for Active; 'I' for Inactive)
ROOT
ATOM      1  C   UNL d   1       1.017  -0.824  -0.058  0.00  0.00     0.172 C 
ATOM      2  N   UNL d   1       0.037  -0.003   0.614  0.00  0.00    -0.070 N 
ATOM      3  C1  UNL d   1      -0.496   1.162   0.130  0.00  0.00    -0.004 A 
ATOM      4  C2  UNL d   1      -1.390   1.637   1.065  0.00  0.00    -0.047 A 
ATOM      5  C3  UNL d   1      -1.395   0.727   2.148  0.00  0.00    -0.047 A 
ATOM      6  C4  UNL d   1      -0.502  -0.279   1.843  0.00  0.00    -0.004 A 
ENDROOT
TORSDOF 0
ENDMDL
