MODEL 1
REMARK minimizedAffinity -4.11948395
REMARK minimizedRMSD -1
REMARK  0 active torsions:
REMARK  status: ('A' for Active; 'I' for Inactive)
ROOT
ATOM      1  C   UNL d   1       0.308  -0.278  -0.655  0.00  0.00     0.172 C 
ATOM      2  N   UNL d   1      -0.413   0.780   0.013  0.00  0.00    -0.070 N 
ATOM      3  C1  UNL d   1      -1.130   0.649   1.173  0.00  0.00    -0.004 A 
ATOM      4  C2  UNL d   1      -1.663   1.881   1.481  0.00  0.00    -0.047 A 
ATOM      5  C3  UNL d   1      -1.254   2.784   0.471  0.00  0.00    -0.047 A 
ATOM      6  C4  UNL d   1      -0.481   2.076  -0.425  0.00  0.00    -0.004 A 
ENDROOT
TORSDOF 0
ENDMDL
