MODEL 1
REMARK minimizedAffinity 0.957390726
REMARK minimizedRMSD -1
REMARK  0 active torsions:
REMARK  status: ('A' for Active; 'I' for Inactive)
ROOT
ATOM      1  C1  BNZ d   1      -0.147   3.402   3.320  0.00  0.00     0.000 A 
ATOM      2  C2  BNZ d   1      -1.241   2.578   3.280  0.00  0.00     0.000 A 
ATOM      3  C3  BNZ d   1      -1.481   1.787   2.192  0.00  0.00     0.000 A 
ATOM      4  C4  BNZ d   1      -0.652   1.849   1.131  0.00  0.00     0.000 A 
ATOM      5  C5  BNZ d   1       0.450   2.681   1.152  0.00  0.00     0.000 A 
ATOM      6  C6  BNZ d   1       0.710   3.447   2.264  0.00  0.00     0.000 A 
ENDROOT
TORSDOF 0
ENDMDL
