MODEL 1
REMARK minimizedAffinity 0.481839716
REMARK minimizedRMSD -1
REMARK  0 active torsions:
REMARK  status: ('A' for Active; 'I' for Inactive)
ROOT
ATOM      1  C1  BNZ d   1       4.267  -3.910  -4.492  0.00  0.00     0.000 A 
ATOM      2  C2  BNZ d   1       5.552  -3.929  -4.966  0.00  0.00     0.000 A 
ATOM      3  C3  BNZ d   1       5.998  -4.965  -5.737  0.00  0.00     0.000 A 
ATOM      4  C4  BNZ d   1       5.174  -6.000  -5.999  0.00  0.00     0.000 A 
ATOM      5  C5  BNZ d   1       3.879  -6.000  -5.521  0.00  0.00     0.000 A 
ATOM      6  C6  BNZ d   1       3.420  -4.936  -4.778  0.00  0.00     0.000 A 
ENDROOT
TORSDOF 0
ENDMDL
