MODEL 1
REMARK minimizedAffinity 0.940817297
REMARK minimizedRMSD -1
REMARK  0 active torsions:
REMARK  status: ('A' for Active; 'I' for Inactive)
ROOT
ATOM      1  C1  BNZ d   1      -0.068   3.345   3.716  0.00  0.00     0.000 A 
ATOM      2  C2  BNZ d   1      -0.711   2.229   3.251  0.00  0.00     0.000 A 
ATOM      3  C3  BNZ d   1      -0.483   1.765   1.986  0.00  0.00     0.000 A 
ATOM      4  C4  BNZ d   1       0.357   2.440   1.174  0.00  0.00     0.000 A 
ATOM      5  C5  BNZ d   1       1.006   3.572   1.625  0.00  0.00     0.000 A 
ATOM      6  C6  BNZ d   1       0.803   4.014   2.912  0.00  0.00     0.000 A 
ENDROOT
TORSDOF 0
ENDMDL
