MODEL 1
REMARK minimizedAffinity 2.08595181
REMARK minimizedRMSD -1
REMARK  0 active torsions:
REMARK  status: ('A' for Active; 'I' for Inactive)
ROOT
ATOM      1  C1  BNZ d   1      -0.484   4.535   3.169  0.00  0.00     0.000 A 
ATOM      2  C2  BNZ d   1       0.306   4.401   2.059  0.00  0.00     0.000 A 
ATOM      3  C3  BNZ d   1       0.467   3.184   1.458  0.00  0.00     0.000 A 
ATOM      4  C4  BNZ d   1      -0.131   2.098   1.989  0.00  0.00     0.000 A 
ATOM      5  C5  BNZ d   1      -0.923   2.216   3.113  0.00  0.00     0.000 A 
ATOM      6  C6  BNZ d   1      -1.114   3.449   3.693  0.00  0.00     0.000 A 
ENDROOT
TORSDOF 0
ENDMDL
