MODEL 1
REMARK minimizedAffinity 4.00113964
REMARK minimizedRMSD -1
REMARK  0 active torsions:
REMARK  status: ('A' for Active; 'I' for Inactive)
ROOT
ATOM      1  C1  BNZ d   1       4.846   1.904  -4.774  0.00  0.00     0.000 A 
ATOM      2  C2  BNZ d   1       4.082   1.839  -3.640  0.00  0.00     0.000 A 
ATOM      3  C3  BNZ d   1       2.742   2.109  -3.682  0.00  0.00     0.000 A 
ATOM      4  C4  BNZ d   1       2.178   2.482  -4.848  0.00  0.00     0.000 A 
ATOM      5  C5  BNZ d   1       2.937   2.561  -5.999  0.00  0.00     0.000 A 
ATOM      6  C6  BNZ d   1       4.277   2.250  -5.960  0.00  0.00     0.000 A 
ENDROOT
TORSDOF 0
ENDMDL
