MODEL 1
REMARK minimizedAffinity -3.71679306
REMARK minimizedRMSD -1
REMARK  0 active torsions:
REMARK  status: ('A' for Active; 'I' for Inactive)
ROOT
ATOM      1  C1  BNZ d   1      -3.717  -1.147   3.653  0.00  0.00     0.000 A 
ATOM      2  C2  BNZ d   1      -5.036  -0.963   3.973  0.00  0.00     0.000 A 
ATOM      3  C3  BNZ d   1      -5.802  -0.058   3.292  0.00  0.00     0.000 A 
ATOM      4  C4  BNZ d   1      -5.239   0.689   2.320  0.00  0.00     0.000 A 
ATOM      5  C5  BNZ d   1      -3.908   0.522   1.992  0.00  0.00     0.000 A 
ATOM      6  C6  BNZ d   1      -3.150  -0.417   2.654  0.00  0.00     0.000 A 
ENDROOT
TORSDOF 0
ENDMDL
