MODEL 1
REMARK minimizedAffinity -3.79611373
REMARK minimizedRMSD -1
REMARK  0 active torsions:
REMARK  status: ('A' for Active; 'I' for Inactive)
ROOT
ATOM      1  C1  BNZ d   1      -0.401   3.321   1.727  0.00  0.00     0.000 A 
ATOM      2  C2  BNZ d   1       0.004   2.389   0.809  0.00  0.00     0.000 A 
ATOM      3  C3  BNZ d   1       1.328   2.084   0.659  0.00  0.00     0.000 A 
ATOM      4  C4  BNZ d   1       2.247   2.739   1.397  0.00  0.00     0.000 A 
ATOM      5  C5  BNZ d   1       1.855   3.688   2.321  0.00  0.00     0.000 A 
ATOM      6  C6  BNZ d   1       0.518   3.964   2.496  0.00  0.00     0.000 A 
ENDROOT
TORSDOF 0
ENDMDL
