MODEL 1
REMARK minimizedAffinity -2.79896283
REMARK minimizedRMSD -1
REMARK  0 active torsions:
REMARK  status: ('A' for Active; 'I' for Inactive)
ROOT
ATOM      1  C1  BNZ d   1       2.991   3.314  -4.827  0.00  0.00     0.000 A 
ATOM      2  C2  BNZ d   1       3.667   3.109  -6.000  0.00  0.00     0.000 A 
ATOM      3  C3  BNZ d   1       4.946   2.627  -5.995  0.00  0.00     0.000 A 
ATOM      4  C4  BNZ d   1       5.560   2.388  -4.818  0.00  0.00     0.000 A 
ATOM      5  C5  BNZ d   1       4.895   2.599  -3.627  0.00  0.00     0.000 A 
ATOM      6  C6  BNZ d   1       3.594   3.047  -3.637  0.00  0.00     0.000 A 
ENDROOT
TORSDOF 0
ENDMDL
