MODEL 1
REMARK minimizedAffinity 0.670355082
REMARK minimizedRMSD -1
REMARK  0 active torsions:
REMARK  status: ('A' for Active; 'I' for Inactive)
ROOT
ATOM      1  C1  BNZ d   1      -4.378  -0.677   4.579  0.00  0.00     0.000 A 
ATOM      2  C2  BNZ d   1      -3.066  -0.491   4.231  0.00  0.00     0.000 A 
ATOM      3  C3  BNZ d   1      -2.481  -1.262   3.267  0.00  0.00     0.000 A 
ATOM      4  C4  BNZ d   1      -3.194  -2.245   2.681  0.00  0.00     0.000 A 
ATOM      5  C5  BNZ d   1      -4.515  -2.452   3.027  0.00  0.00     0.000 A 
ATOM      6  C6  BNZ d   1      -5.112  -1.648   3.970  0.00  0.00     0.000 A 
ENDROOT
TORSDOF 0
ENDMDL
