MODEL 1
REMARK minimizedAffinity 1.60222816
REMARK minimizedRMSD -1
REMARK  0 active torsions:
REMARK  status: ('A' for Active; 'I' for Inactive)
ROOT
ATOM      1  C1  BNZ d   1      -0.742   3.764   1.912  0.00  0.00     0.000 A 
ATOM      2  C2  BNZ d   1       0.624   3.785   2.005  0.00  0.00     0.000 A 
ATOM      3  C3  BNZ d   1       1.241   3.902   3.219  0.00  0.00     0.000 A 
ATOM      4  C4  BNZ d   1       0.493   4.038   4.333  0.00  0.00     0.000 A 
ATOM      5  C5  BNZ d   1      -0.885   4.028   4.255  0.00  0.00     0.000 A 
ATOM      6  C6  BNZ d   1      -1.503   3.871   3.035  0.00  0.00     0.000 A 
ENDROOT
TORSDOF 0
ENDMDL
