MODEL 1
REMARK minimizedAffinity 1.11134779
REMARK minimizedRMSD -1
REMARK  0 active torsions:
REMARK  status: ('A' for Active; 'I' for Inactive)
ROOT
ATOM      1  C1  BNZ d   1       0.111   0.309  -0.105  0.00  0.00     0.000 A 
ATOM      2  C2  BNZ d   1      -1.248   0.477  -0.140  0.00  0.00     0.000 A 
ATOM      3  C3  BNZ d   1      -1.851   1.458   0.597  0.00  0.00     0.000 A 
ATOM      4  C4  BNZ d   1      -1.101   2.241   1.398  0.00  0.00     0.000 A 
ATOM      5  C5  BNZ d   1       0.269   2.078   1.452  0.00  0.00     0.000 A 
ATOM      6  C6  BNZ d   1       0.877   1.115   0.679  0.00  0.00     0.000 A 
ENDROOT
TORSDOF 0
ENDMDL
