MODEL 1
REMARK minimizedAffinity -3.73134971
REMARK minimizedRMSD -1
REMARK  0 active torsions:
REMARK  status: ('A' for Active; 'I' for Inactive)
ROOT
ATOM      1  C1  BNZ d   1       5.382   2.642  -3.780  0.00  0.00     0.000 A 
ATOM      2  C2  BNZ d   1       4.126   2.898  -3.300  0.00  0.00     0.000 A 
ATOM      3  C3  BNZ d   1       3.107   3.232  -4.148  0.00  0.00     0.000 A 
ATOM      4  C4  BNZ d   1       3.354   3.347  -5.468  0.00  0.00     0.000 A 
ATOM      5  C5  BNZ d   1       4.618   3.101  -5.967  0.00  0.00     0.000 A 
ATOM      6  C6  BNZ d   1       5.632   2.728  -5.115  0.00  0.00     0.000 A 
ENDROOT
TORSDOF 0
ENDMDL
