MODEL 1
REMARK minimizedAffinity 1.53678882
REMARK minimizedRMSD -1
REMARK  0 active torsions:
REMARK  status: ('A' for Active; 'I' for Inactive)
ROOT
ATOM      1  C1  BNZ d   1      -2.517   3.422  -5.999  0.00  0.00     0.000 A 
ATOM      2  C2  BNZ d   1      -2.606   4.789  -6.000  0.00  0.00     0.000 A 
ATOM      3  C3  BNZ d   1      -3.822   5.411  -5.975  0.00  0.00     0.000 A 
ATOM      4  C4  BNZ d   1      -4.948   4.668  -5.990  0.00  0.00     0.000 A 
ATOM      5  C5  BNZ d   1      -4.875   3.289  -5.999  0.00  0.00     0.000 A 
ATOM      6  C6  BNZ d   1      -3.648   2.666  -5.984  0.00  0.00     0.000 A 
ENDROOT
TORSDOF 0
ENDMDL
