MODEL 1
REMARK minimizedAffinity -1.20867383
REMARK minimizedRMSD -1
REMARK  0 active torsions:
REMARK  status: ('A' for Active; 'I' for Inactive)
ROOT
ATOM      1  C1  BNZ d   1       2.785   2.582  -4.611  0.00  0.00     0.000 A 
ATOM      2  C2  BNZ d   1       2.868   2.266  -3.281  0.00  0.00     0.000 A 
ATOM      3  C3  BNZ d   1       4.080   2.201  -2.652  0.00  0.00     0.000 A 
ATOM      4  C4  BNZ d   1       5.207   2.413  -3.360  0.00  0.00     0.000 A 
ATOM      5  C5  BNZ d   1       5.140   2.724  -4.704  0.00  0.00     0.000 A 
ATOM      6  C6  BNZ d   1       3.917   2.827  -5.325  0.00  0.00     0.000 A 
ENDROOT
TORSDOF 0
ENDMDL
