MODEL 1
REMARK minimizedAffinity -3.25980687
REMARK minimizedRMSD -1
REMARK  0 active torsions:
REMARK  status: ('A' for Active; 'I' for Inactive)
ROOT
ATOM      1  C1  BNZ d   1       5.968   2.637  -3.759  0.00  0.00     0.000 A 
ATOM      2  C2  BNZ d   1       4.817   2.954  -3.087  0.00  0.00     0.000 A 
ATOM      3  C3  BNZ d   1       3.688   3.318  -3.766  0.00  0.00     0.000 A 
ATOM      4  C4  BNZ d   1       3.721   3.403  -5.111  0.00  0.00     0.000 A 
ATOM      5  C5  BNZ d   1       4.876   3.096  -5.803  0.00  0.00     0.000 A 
ATOM      6  C6  BNZ d   1       6.000   2.692  -5.119  0.00  0.00     0.000 A 
ENDROOT
TORSDOF 0
ENDMDL
