MODEL 1
REMARK minimizedAffinity 4.18381643
REMARK minimizedRMSD -1
REMARK  0 active torsions:
REMARK  status: ('A' for Active; 'I' for Inactive)
ROOT
ATOM      1  C1  BNZ d   1       0.008  -4.342  -3.125  0.00  0.00     0.000 A 
ATOM      2  C2  BNZ d   1      -1.351  -4.444  -2.984  0.00  0.00     0.000 A 
ATOM      3  C3  BNZ d   1      -1.999  -3.807  -1.963  0.00  0.00     0.000 A 
ATOM      4  C4  BNZ d   1      -1.284  -3.102  -1.062  0.00  0.00     0.000 A 
ATOM      5  C5  BNZ d   1       0.087  -2.997  -1.185  0.00  0.00     0.000 A 
ATOM      6  C6  BNZ d   1       0.731  -3.608  -2.236  0.00  0.00     0.000 A 
ENDROOT
TORSDOF 0
ENDMDL
