MODEL 1
REMARK minimizedAffinity 7.66679382
REMARK minimizedRMSD -1
REMARK  0 active torsions:
REMARK  status: ('A' for Active; 'I' for Inactive)
ROOT
ATOM      1  C   UNL d   1      -4.358   4.947  -5.651  0.00  0.00     0.020 A 
ATOM      2  C1  UNL d   1      -3.749   5.440  -4.498  0.00  0.00     0.020 A 
ATOM      3  C2  UNL d   1      -2.986   4.592  -3.693  0.00  0.00     0.034 A 
ATOM      4  C3  UNL d   1      -2.830   3.245  -4.040  0.00  0.00     0.017 A 
ATOM      5  C4  UNL d   1      -3.442   2.750  -5.198  0.00  0.00     0.017 A 
ATOM      6  C5  UNL d   1      -4.205   3.605  -6.000  0.00  0.00     0.034 A 
ATOM      7 Cl   UNL d   1      -3.295   1.100  -5.691  0.00  0.00    -0.070 Cl
ATOM      8 Cl1  UNL d   1      -1.873   2.252  -2.999  0.00  0.00    -0.070 Cl
ENDROOT
TORSDOF 0
ENDMDL
