MODEL 1
REMARK minimizedAffinity 15.5364819
REMARK minimizedRMSD -1
REMARK  0 active torsions:
REMARK  status: ('A' for Active; 'I' for Inactive)
ROOT
ATOM      1  C   UNL d   1      -3.800  -0.696   0.852  0.00  0.00     0.020 A 
ATOM      2  C1  UNL d   1      -3.981   0.686   0.872  0.00  0.00     0.020 A 
ATOM      3  C2  UNL d   1      -3.460   1.474  -0.156  0.00  0.00     0.034 A 
ATOM      4  C3  UNL d   1      -2.754   0.880  -1.209  0.00  0.00     0.017 A 
ATOM      5  C4  UNL d   1      -2.573  -0.507  -1.229  0.00  0.00     0.017 A 
ATOM      6  C5  UNL d   1      -3.097  -1.292  -0.197  0.00  0.00     0.034 A 
ATOM      7 Cl   UNL d   1      -1.714  -1.312  -2.495  0.00  0.00    -0.070 Cl
ATOM      8 Cl1  UNL d   1      -2.137   1.915  -2.447  0.00  0.00    -0.070 Cl
ENDROOT
TORSDOF 0
ENDMDL
