MODEL 1
REMARK minimizedAffinity 8.80162334
REMARK minimizedRMSD -1
REMARK  0 active torsions:
REMARK  status: ('A' for Active; 'I' for Inactive)
ROOT
ATOM      1  C   UNL d   1       1.134  -2.536   0.768  0.00  0.00     0.020 A 
ATOM      2  C1  UNL d   1       1.941  -1.452   1.108  0.00  0.00     0.020 A 
ATOM      3  C2  UNL d   1       3.270  -1.411   0.682  0.00  0.00     0.034 A 
ATOM      4  C3  UNL d   1       3.796  -2.456  -0.086  0.00  0.00     0.017 A 
ATOM      5  C4  UNL d   1       2.985  -3.545  -0.427  0.00  0.00     0.017 A 
ATOM      6  C5  UNL d   1       1.654  -3.581   0.003  0.00  0.00     0.034 A 
ATOM      7 Cl   UNL d   1       3.562  -4.872  -1.371  0.00  0.00    -0.070 Cl
ATOM      8 Cl1  UNL d   1       5.448  -2.339  -0.579  0.00  0.00    -0.070 Cl
ENDROOT
TORSDOF 0
ENDMDL
