MODEL 1
REMARK minimizedAffinity 10.8203754
REMARK minimizedRMSD -1
REMARK  0 active torsions:
REMARK  status: ('A' for Active; 'I' for Inactive)
ROOT
ATOM      1  C   UNL d   1      -3.273  -0.016  -1.667  0.00  0.00     0.020 A 
ATOM      2  C1  UNL d   1      -1.911  -0.301  -1.587  0.00  0.00     0.020 A 
ATOM      3  C2  UNL d   1      -0.978   0.591  -2.121  0.00  0.00     0.034 A 
ATOM      4  C3  UNL d   1      -1.407   1.771  -2.739  0.00  0.00     0.017 A 
ATOM      5  C4  UNL d   1      -2.775   2.056  -2.819  0.00  0.00     0.017 A 
ATOM      6  C5  UNL d   1      -3.704   1.160  -2.282  0.00  0.00     0.034 A 
ATOM      7 Cl   UNL d   1      -3.380   3.493  -3.566  0.00  0.00    -0.070 Cl
ATOM      8 Cl1  UNL d   1      -0.199   2.828  -3.378  0.00  0.00    -0.070 Cl
ENDROOT
TORSDOF 0
ENDMDL
