MODEL 1
REMARK minimizedAffinity 11.7516623
REMARK minimizedRMSD -1
REMARK  0 active torsions:
REMARK  status: ('A' for Active; 'I' for Inactive)
ROOT
ATOM      1  C   UNL d   1       2.224  -0.167   1.955  0.00  0.00     0.020 A 
ATOM      2  C1  UNL d   1       3.153  -0.787   1.121  0.00  0.00     0.020 A 
ATOM      3  C2  UNL d   1       2.868  -2.036   0.564  0.00  0.00     0.034 A 
ATOM      4  C3  UNL d   1       1.650  -2.668   0.841  0.00  0.00     0.017 A 
ATOM      5  C4  UNL d   1       0.718  -2.045   1.679  0.00  0.00     0.017 A 
ATOM      6  C5  UNL d   1       1.009  -0.795   2.234  0.00  0.00     0.034 A 
ATOM      7 Cl   UNL d   1      -0.805  -2.763   2.067  0.00  0.00    -0.070 Cl
ATOM      8 Cl1  UNL d   1       1.364  -4.211   0.118  0.00  0.00    -0.070 Cl
ENDROOT
TORSDOF 0
ENDMDL
