MODEL 1
REMARK minimizedAffinity 8.76284027
REMARK minimizedRMSD -1
REMARK  0 active torsions:
REMARK  status: ('A' for Active; 'I' for Inactive)
ROOT
ATOM      1  C   UNL d   1       0.963  -1.577   1.859  0.00  0.00     0.020 A 
ATOM      2  C1  UNL d   1       0.194  -2.613   1.330  0.00  0.00     0.020 A 
ATOM      3  C2  UNL d   1       0.794  -3.592   0.536  0.00  0.00     0.034 A 
ATOM      4  C3  UNL d   1       2.166  -3.538   0.268  0.00  0.00     0.017 A 
ATOM      5  C4  UNL d   1       2.937  -2.498   0.799  0.00  0.00     0.017 A 
ATOM      6  C5  UNL d   1       2.332  -1.520   1.594  0.00  0.00     0.034 A 
ATOM      7 Cl   UNL d   1       4.636  -2.364   0.513  0.00  0.00    -0.070 Cl
ATOM      8 Cl1  UNL d   1       2.841  -4.783  -0.721  0.00  0.00    -0.070 Cl
ENDROOT
TORSDOF 0
ENDMDL
