MODEL 1
REMARK minimizedAffinity 4.04861307
REMARK minimizedRMSD -1
REMARK  0 active torsions:
REMARK  status: ('A' for Active; 'I' for Inactive)
ROOT
ATOM      1  C   UNL d   1      -4.994   5.232  -5.531  0.00  0.00     0.020 A 
ATOM      2  C1  UNL d   1      -4.341   5.732  -4.405  0.00  0.00     0.020 A 
ATOM      3  C2  UNL d   1      -3.387   4.953  -3.747  0.00  0.00     0.034 A 
ATOM      4  C3  UNL d   1      -3.084   3.669  -4.215  0.00  0.00     0.017 A 
ATOM      5  C4  UNL d   1      -3.740   3.168  -5.345  0.00  0.00     0.017 A 
ATOM      6  C5  UNL d   1      -4.694   3.953  -6.000  0.00  0.00     0.034 A 
ATOM      7 Cl   UNL d   1      -3.419   1.593  -5.981  0.00  0.00    -0.070 Cl
ATOM      8 Cl1  UNL d   1      -1.893   2.760  -3.353  0.00  0.00    -0.070 Cl
ENDROOT
TORSDOF 0
ENDMDL
