MODEL 1
REMARK minimizedAffinity 4.98015881
REMARK minimizedRMSD -1
REMARK  1 active torsions:
REMARK  status: ('A' for Active; 'I' for Inactive)
REMARK    1  A    between atoms: C1_2  and  C2_3 
ROOT
ATOM      1  C2  UNL d   1       0.812   2.508  -1.032  0.00  0.00    -0.081 A 
ATOM      2  C3  UNL d   1       1.059   2.278   0.327  0.00  0.00     0.006 A 
ATOM      3  C4  UNL d   1       1.503   1.028   0.764  0.00  0.00     0.002 A 
ATOM      4  C5  UNL d   1       1.714  -0.010  -0.149  0.00  0.00    -0.080 A 
ATOM      5  C6  UNL d   1       2.219  -1.348   0.303  0.00  0.00     0.076 C 
ATOM      6  C7  UNL d   1       1.451   0.214  -1.505  0.00  0.00     0.002 A 
ATOM      7  C8  UNL d   1       1.006   1.464  -1.943  0.00  0.00     0.006 A 
ENDROOT
BRANCH   1   8
ATOM      8  C1  UNL d   1       0.395   3.873  -1.515  0.00  0.00     0.054 C 
ATOM      9  C   UNL d   1       1.201   4.971  -0.834  0.00  0.00     0.018 C 
ENDBRANCH   1   8
TORSDOF 1
ENDMDL
