MODEL 1
REMARK minimizedAffinity 4.26485014
REMARK minimizedRMSD -1
REMARK  1 active torsions:
REMARK  status: ('A' for Active; 'I' for Inactive)
REMARK    1  A    between atoms: C1_2  and  C2_3 
ROOT
ATOM      1  C2  UNL d   1      -3.775   2.948   0.921  0.00  0.00    -0.081 A 
ATOM      2  C3  UNL d   1      -2.883   3.702   1.692  0.00  0.00     0.006 A 
ATOM      3  C4  UNL d   1      -2.658   3.380   3.033  0.00  0.00     0.002 A 
ATOM      4  C5  UNL d   1      -3.316   2.295   3.621  0.00  0.00    -0.080 A 
ATOM      5  C6  UNL d   1      -3.061   1.919   5.051  0.00  0.00     0.076 C 
ATOM      6  C7  UNL d   1      -4.221   1.552   2.856  0.00  0.00     0.002 A 
ATOM      7  C8  UNL d   1      -4.446   1.874   1.515  0.00  0.00     0.006 A 
ENDROOT
BRANCH   1   8
ATOM      8  C1  UNL d   1      -3.970   3.253  -0.543  0.00  0.00     0.054 C 
ATOM      9  C   UNL d   1      -2.863   2.640  -1.388  0.00  0.00     0.018 C 
ENDBRANCH   1   8
TORSDOF 1
ENDMDL
