MODEL 1
REMARK minimizedAffinity -1.618402
REMARK minimizedRMSD -1
REMARK  1 active torsions:
REMARK  status: ('A' for Active; 'I' for Inactive)
REMARK    1  A    between atoms: C1_2  and  C2_3 
ROOT
ATOM      1  C2  UNL d   1       1.125   2.146   0.967  0.00  0.00    -0.081 A 
ATOM      2  C3  UNL d   1       1.913   1.104   1.470  0.00  0.00     0.006 A 
ATOM      3  C4  UNL d   1       1.985  -0.118   0.798  0.00  0.00     0.002 A 
ATOM      4  C5  UNL d   1       1.277  -0.316  -0.392  0.00  0.00    -0.080 A 
ATOM      5  C6  UNL d   1       1.370  -1.613  -1.140  0.00  0.00     0.076 C 
ATOM      6  C7  UNL d   1       0.476   0.718  -0.886  0.00  0.00     0.002 A 
ATOM      7  C8  UNL d   1       0.403   1.940  -0.214  0.00  0.00     0.006 A 
ENDROOT
BRANCH   1   8
ATOM      8  C1  UNL d   1       1.096   3.487   1.655  0.00  0.00     0.054 C 
ATOM      9  C   UNL d   1       2.299   3.665   2.570  0.00  0.00     0.018 C 
ENDBRANCH   1   8
TORSDOF 1
ENDMDL
