MODEL 1
REMARK minimizedAffinity -4.5941987
REMARK minimizedRMSD -1
REMARK  1 active torsions:
REMARK  status: ('A' for Active; 'I' for Inactive)
REMARK    1  A    between atoms: C1_2  and  C2_3 
ROOT
ATOM      1  C2  UNL d   1       0.837   1.698  -0.609  0.00  0.00    -0.081 A 
ATOM      2  C3  UNL d   1       1.012   2.488  -1.752  0.00  0.00     0.006 A 
ATOM      3  C4  UNL d   1       1.059   3.880  -1.649  0.00  0.00     0.002 A 
ATOM      4  C5  UNL d   1       0.939   4.505  -0.403  0.00  0.00    -0.080 A 
ATOM      5  C6  UNL d   1       1.019   5.997  -0.276  0.00  0.00     0.076 C 
ATOM      6  C7  UNL d   1       0.747   3.716   0.736  0.00  0.00     0.002 A 
ATOM      7  C8  UNL d   1       0.699   2.324   0.635  0.00  0.00     0.006 A 
ENDROOT
BRANCH   1   8
ATOM      8  C1  UNL d   1       0.850   0.193  -0.707  0.00  0.00     0.054 C 
ATOM      9  C   UNL d   1       2.271  -0.351  -0.670  0.00  0.00     0.018 C 
ENDBRANCH   1   8
TORSDOF 1
ENDMDL
