MODEL 1
REMARK minimizedAffinity -0.21057117
REMARK minimizedRMSD -1
REMARK  1 active torsions:
REMARK  status: ('A' for Active; 'I' for Inactive)
REMARK    1  A    between atoms: C1_2  and  C2_3 
ROOT
ATOM      1  C2  UNL d   1       1.021   0.021  -1.050  0.00  0.00    -0.081 A 
ATOM      2  C3  UNL d   1       1.499   0.261   0.244  0.00  0.00     0.006 A 
ATOM      3  C4  UNL d   1       1.603   1.567   0.730  0.00  0.00     0.002 A 
ATOM      4  C5  UNL d   1       1.222   2.652  -0.066  0.00  0.00    -0.080 A 
ATOM      5  C6  UNL d   1       1.299   4.057   0.454  0.00  0.00     0.076 C 
ATOM      6  C7  UNL d   1       0.760   2.414  -1.365  0.00  0.00     0.002 A 
ATOM      7  C8  UNL d   1       0.657   1.109  -1.851  0.00  0.00     0.006 A 
ENDROOT
BRANCH   1   8
ATOM      8  C1  UNL d   1       0.847  -1.389  -1.553  0.00  0.00     0.054 C 
ATOM      9  C   UNL d   1       1.125  -2.407  -0.456  0.00  0.00     0.018 C 
ENDBRANCH   1   8
TORSDOF 1
ENDMDL
