MODEL 1
REMARK minimizedAffinity 8.04263783
REMARK minimizedRMSD -1
REMARK  1 active torsions:
REMARK  status: ('A' for Active; 'I' for Inactive)
REMARK    1  A    between atoms: C1_2  and  C2_3 
ROOT
ATOM      1  C2  UNL d   1       1.624   2.150   0.350  0.00  0.00    -0.081 A 
ATOM      2  C3  UNL d   1       1.167   2.740  -0.835  0.00  0.00     0.006 A 
ATOM      3  C4  UNL d   1       1.102   1.998  -2.017  0.00  0.00     0.002 A 
ATOM      4  C5  UNL d   1       1.484   0.653  -2.032  0.00  0.00    -0.080 A 
ATOM      5  C6  UNL d   1       1.391  -0.163  -3.287  0.00  0.00     0.076 C 
ATOM      6  C7  UNL d   1       1.957   0.067  -0.853  0.00  0.00     0.002 A 
ATOM      7  C8  UNL d   1       2.023   0.809   0.329  0.00  0.00     0.006 A 
ENDROOT
BRANCH   1   8
ATOM      8  C1  UNL d   1       1.634   2.929   1.640  0.00  0.00     0.054 C 
ATOM      9  C   UNL d   1       2.733   2.440   2.573  0.00  0.00     0.018 C 
ENDBRANCH   1   8
TORSDOF 1
ENDMDL
