MODEL 1
REMARK minimizedAffinity 5.14724016
REMARK minimizedRMSD -1
REMARK  1 active torsions:
REMARK  status: ('A' for Active; 'I' for Inactive)
REMARK    1  A    between atoms: C1_2  and  C2_3 
ROOT
ATOM      1  C2  UNL d   1       0.787   2.563  -1.477  0.00  0.00    -0.081 A 
ATOM      2  C3  UNL d   1       0.338   2.367  -0.165  0.00  0.00     0.006 A 
ATOM      3  C4  UNL d   1       0.480   1.122   0.453  0.00  0.00     0.002 A 
ATOM      4  C5  UNL d   1       1.079   0.056  -0.227  0.00  0.00    -0.080 A 
ATOM      5  C6  UNL d   1       1.265  -1.276   0.436  0.00  0.00     0.076 C 
ATOM      6  C7  UNL d   1       1.513   0.248  -1.543  0.00  0.00     0.002 A 
ATOM      7  C8  UNL d   1       1.371   1.492  -2.162  0.00  0.00     0.006 A 
ENDROOT
BRANCH   1   8
ATOM      8  C1  UNL d   1       0.695   3.922  -2.123  0.00  0.00     0.054 C 
ATOM      9  C   UNL d   1       1.245   5.008  -1.210  0.00  0.00     0.018 C 
ENDBRANCH   1   8
TORSDOF 1
ENDMDL
