MODEL 1
REMARK minimizedAffinity -1.56586528
REMARK minimizedRMSD -1
REMARK  1 active torsions:
REMARK  status: ('A' for Active; 'I' for Inactive)
REMARK    1  A    between atoms: C1_2  and  C2_3 
ROOT
ATOM      1  C2  UNL d   1       0.899   1.341  -0.256  0.00  0.00    -0.081 A 
ATOM      2  C3  UNL d   1       1.173   0.039   0.182  0.00  0.00     0.006 A 
ATOM      3  C4  UNL d   1       1.304  -0.237   1.545  0.00  0.00     0.002 A 
ATOM      4  C5  UNL d   1       1.156   0.782   2.492  0.00  0.00    -0.080 A 
ATOM      5  C6  UNL d   1       1.265   0.494   3.960  0.00  0.00     0.076 C 
ATOM      6  C7  UNL d   1       0.901   2.086   2.054  0.00  0.00     0.002 A 
ATOM      7  C8  UNL d   1       0.770   2.362   0.691  0.00  0.00     0.006 A 
ENDROOT
BRANCH   1   8
ATOM      8  C1  UNL d   1       0.693   1.629  -1.721  0.00  0.00     0.054 C 
ATOM      9  C   UNL d   1       1.042   3.072  -2.056  0.00  0.00     0.018 C 
ENDBRANCH   1   8
TORSDOF 1
ENDMDL
