MODEL 1
REMARK minimizedAffinity 10.0195675
REMARK minimizedRMSD -1
REMARK  1 active torsions:
REMARK  status: ('A' for Active; 'I' for Inactive)
REMARK    1  A    between atoms: C1_2  and  C2_3 
ROOT
ATOM      1  C2  UNL d   1       1.217   4.091  -1.459  0.00  0.00    -0.081 A 
ATOM      2  C3  UNL d   1       1.018   3.265  -0.346  0.00  0.00     0.006 A 
ATOM      3  C4  UNL d   1       0.912   1.881  -0.501  0.00  0.00     0.002 A 
ATOM      4  C5  UNL d   1       1.011   1.299  -1.769  0.00  0.00    -0.080 A 
ATOM      5  C6  UNL d   1       0.929  -0.188  -1.946  0.00  0.00     0.076 C 
ATOM      6  C7  UNL d   1       1.192   2.125  -2.883  0.00  0.00     0.002 A 
ATOM      7  C8  UNL d   1       1.298   3.510  -2.729  0.00  0.00     0.006 A 
ENDROOT
BRANCH   1   8
ATOM      8  C1  UNL d   1       1.397   5.578  -1.288  0.00  0.00     0.054 C 
ATOM      9  C   UNL d   1       2.830   5.999  -1.578  0.00  0.00     0.018 C 
ENDBRANCH   1   8
TORSDOF 1
ENDMDL
