MODEL 1
REMARK minimizedAffinity 4.47905111
REMARK minimizedRMSD -1
REMARK  1 active torsions:
REMARK  status: ('A' for Active; 'I' for Inactive)
REMARK    1  A    between atoms: C1_2  and  C2_3 
ROOT
ATOM      1  C2  UNL d   1       2.178   1.632   1.897  0.00  0.00    -0.081 A 
ATOM      2  C3  UNL d   1       2.538   0.306   1.626  0.00  0.00     0.006 A 
ATOM      3  C4  UNL d   1       2.009  -0.359   0.518  0.00  0.00     0.002 A 
ATOM      4  C5  UNL d   1       1.118   0.291  -0.342  0.00  0.00    -0.080 A 
ATOM      5  C6  UNL d   1       0.566  -0.402  -1.553  0.00  0.00     0.076 C 
ATOM      6  C7  UNL d   1       0.744   1.610  -0.062  0.00  0.00     0.002 A 
ATOM      7  C8  UNL d   1       1.272   2.276   1.046  0.00  0.00     0.006 A 
ENDROOT
BRANCH   1   8
ATOM      8  C1  UNL d   1       2.796   2.373   3.054  0.00  0.00     0.054 C 
ATOM      9  C   UNL d   1       2.861   3.869   2.782  0.00  0.00     0.018 C 
ENDBRANCH   1   8
TORSDOF 1
ENDMDL
