MODEL 1
REMARK minimizedAffinity -2.28309798
REMARK minimizedRMSD -1
REMARK  1 active torsions:
REMARK  status: ('A' for Active; 'I' for Inactive)
REMARK    1  A    between atoms: C1_2  and  C2_3 
ROOT
ATOM      1  C2  UNL d   1       1.229   2.990  -0.863  0.00  0.00    -0.081 A 
ATOM      2  C3  UNL d   1       1.224   2.754   0.517  0.00  0.00     0.006 A 
ATOM      3  C4  UNL d   1       1.010   1.466   1.015  0.00  0.00     0.002 A 
ATOM      4  C5  UNL d   1       0.805   0.393   0.142  0.00  0.00    -0.080 A 
ATOM      5  C6  UNL d   1       0.604  -0.999   0.662  0.00  0.00     0.076 C 
ATOM      6  C7  UNL d   1       0.792   0.631  -1.237  0.00  0.00     0.002 A 
ATOM      7  C8  UNL d   1       1.006   1.918  -1.735  0.00  0.00     0.006 A 
ENDROOT
BRANCH   1   8
ATOM      8  C1  UNL d   1       1.524   4.365  -1.405  0.00  0.00     0.054 C 
ATOM      9  C   UNL d   1       1.769   5.361  -0.281  0.00  0.00     0.018 C 
ENDBRANCH   1   8
TORSDOF 1
ENDMDL
