MODEL 1
REMARK minimizedAffinity -0.124373645
REMARK minimizedRMSD -1
REMARK  1 active torsions:
REMARK  status: ('A' for Active; 'I' for Inactive)
REMARK    1  A    between atoms: C1_2  and  C2_3 
ROOT
ATOM      1  C2  UNL d   1      -3.455  -5.187  -5.943  0.00  0.00    -0.081 A 
ATOM      2  C3  UNL d   1      -2.246  -5.892  -5.959  0.00  0.00     0.006 A 
ATOM      3  C4  UNL d   1      -1.028  -5.209  -5.989  0.00  0.00     0.002 A 
ATOM      4  C5  UNL d   1      -0.998  -3.811  -5.997  0.00  0.00    -0.080 A 
ATOM      5  C6  UNL d   1       0.303  -3.065  -5.998  0.00  0.00     0.076 C 
ATOM      6  C7  UNL d   1      -2.206  -3.106  -5.999  0.00  0.00     0.002 A 
ATOM      7  C8  UNL d   1      -3.425  -3.788  -5.969  0.00  0.00     0.006 A 
ENDROOT
BRANCH   1   8
ATOM      8  C1  UNL d   1      -4.769  -5.919  -5.845  0.00  0.00     0.054 C 
ATOM      9  C   UNL d   1      -5.946  -4.962  -5.965  0.00  0.00     0.018 C 
ENDBRANCH   1   8
TORSDOF 1
ENDMDL
