MODEL 1
REMARK minimizedAffinity 12.2140989
REMARK minimizedRMSD -1
REMARK  1 active torsions:
REMARK  status: ('A' for Active; 'I' for Inactive)
REMARK    1  A    between atoms: C1_2  and  C2_3 
ROOT
ATOM      1  C2  UNL d   1      -0.446   5.059  -2.299  0.00  0.00    -0.081 A 
ATOM      2  C3  UNL d   1      -1.006   5.492  -1.092  0.00  0.00     0.006 A 
ATOM      3  C4  UNL d   1      -1.059   4.637   0.012  0.00  0.00     0.002 A 
ATOM      4  C5  UNL d   1      -0.546   3.338  -0.071  0.00  0.00    -0.080 A 
ATOM      5  C6  UNL d   1      -0.570   2.421   1.115  0.00  0.00     0.076 C 
ATOM      6  C7  UNL d   1      -0.002   2.899  -1.283  0.00  0.00     0.002 A 
ATOM      7  C8  UNL d   1       0.051   3.753  -2.387  0.00  0.00     0.006 A 
ENDROOT
BRANCH   1   8
ATOM      8  C1  UNL d   1      -0.328   5.999  -3.471  0.00  0.00     0.054 C 
ATOM      9  C   UNL d   1       0.331   5.319  -4.663  0.00  0.00     0.018 C 
ENDBRANCH   1   8
TORSDOF 1
ENDMDL
