MODEL 1
REMARK minimizedAffinity 6.31032324
REMARK minimizedRMSD -1
REMARK  1 active torsions:
REMARK  status: ('A' for Active; 'I' for Inactive)
REMARK    1  A    between atoms: C1_2  and  C2_3 
ROOT
ATOM      1  C2  UNL d   1      -0.451   3.013   0.683  0.00  0.00    -0.081 A 
ATOM      2  C3  UNL d   1      -0.775   4.375   0.701  0.00  0.00     0.006 A 
ATOM      3  C4  UNL d   1      -0.729   5.130  -0.473  0.00  0.00     0.002 A 
ATOM      4  C5  UNL d   1      -0.366   4.534  -1.686  0.00  0.00    -0.080 A 
ATOM      5  C6  UNL d   1      -0.343   5.326  -2.960  0.00  0.00     0.076 C 
ATOM      6  C7  UNL d   1      -0.026   3.177  -1.702  0.00  0.00     0.002 A 
ATOM      7  C8  UNL d   1      -0.071   2.423  -0.527  0.00  0.00     0.006 A 
ENDROOT
BRANCH   1   8
ATOM      8  C1  UNL d   1      -0.561   2.182   1.935  0.00  0.00     0.054 C 
ATOM      9  C   UNL d   1       0.812   1.813   2.478  0.00  0.00     0.018 C 
ENDBRANCH   1   8
TORSDOF 1
ENDMDL
