MODEL 1
REMARK minimizedAffinity -1.57851815
REMARK minimizedRMSD -1
REMARK  1 active torsions:
REMARK  status: ('A' for Active; 'I' for Inactive)
REMARK    1  A    between atoms: C1_2  and  C2_3 
ROOT
ATOM      1  C2  UNL d   1      -2.259  -3.781  -5.799  0.00  0.00    -0.081 A 
ATOM      2  C3  UNL d   1      -2.256  -5.164  -5.575  0.00  0.00     0.006 A 
ATOM      3  C4  UNL d   1      -3.454  -5.882  -5.561  0.00  0.00     0.002 A 
ATOM      4  C5  UNL d   1      -4.673  -5.232  -5.779  0.00  0.00    -0.080 A 
ATOM      5  C6  UNL d   1      -5.964  -5.997  -5.797  0.00  0.00     0.076 C 
ATOM      6  C7  UNL d   1      -4.679  -3.849  -5.986  0.00  0.00     0.002 A 
ATOM      7  C8  UNL d   1      -3.481  -3.130  -5.999  0.00  0.00     0.006 A 
ENDROOT
BRANCH   1   8
ATOM      8  C1  UNL d   1      -0.964  -3.015  -5.879  0.00  0.00     0.054 C 
ATOM      9  C   UNL d   1       0.228  -3.953  -6.000  0.00  0.00     0.018 C 
ENDBRANCH   1   8
TORSDOF 1
ENDMDL
