MODEL 1
REMARK minimizedAffinity -2.86882544
REMARK minimizedRMSD -1
REMARK  1 active torsions:
REMARK  status: ('A' for Active; 'I' for Inactive)
REMARK    1  A    between atoms: C1_2  and  C2_3 
ROOT
ATOM      1  C2  UNL d   1       0.151  -1.015   0.207  0.00  0.00    -0.076 A 
ATOM      2  C3  UNL d   1       1.497  -1.243  -0.126  0.00  0.00     0.004 A 
ATOM      3  C4  UNL d   1       2.344  -0.187  -0.457  0.00  0.00    -0.003 A 
ATOM      4  C5  UNL d   1       1.858   1.116  -0.458  0.00  0.00     0.000 A 
ATOM      5  C6  UNL d   1       0.530   1.363  -0.112  0.00  0.00     0.000 A 
ATOM      6  C7  UNL d   1      -0.333   0.311   0.239  0.00  0.00    -0.073 A 
ATOM      7  C8  UNL d   1      -1.758   0.634   0.597  0.00  0.00     0.078 C 
ENDROOT
BRANCH   1   8
ATOM      8  C1  UNL d   1      -0.727  -2.203   0.530  0.00  0.00     0.053 C 
ATOM      9  C   UNL d   1      -1.052  -3.038  -0.698  0.00  0.00     0.018 C 
ENDBRANCH   1   8
TORSDOF 1
ENDMDL
