MODEL 1
REMARK minimizedAffinity -4.03501081
REMARK minimizedRMSD -1
REMARK  1 active torsions:
REMARK  status: ('A' for Active; 'I' for Inactive)
REMARK    1  A    between atoms: C1_2  and  C2_3 
ROOT
ATOM      1  C2  UNL d   1       0.106   0.071   0.278  0.00  0.00    -0.076 A 
ATOM      2  C3  UNL d   1      -1.217   0.522   0.424  0.00  0.00     0.004 A 
ATOM      3  C4  UNL d   1      -1.496   1.867   0.660  0.00  0.00    -0.003 A 
ATOM      4  C5  UNL d   1      -0.454   2.784   0.754  0.00  0.00     0.000 A 
ATOM      5  C6  UNL d   1       0.864   2.357   0.594  0.00  0.00     0.000 A 
ATOM      6  C7  UNL d   1       1.160   1.008   0.339  0.00  0.00    -0.073 A 
ATOM      7  C8  UNL d   1       2.600   0.602   0.181  0.00  0.00     0.078 C 
ENDROOT
BRANCH   1   8
ATOM      8  C1  UNL d   1       0.348  -1.404   0.050  0.00  0.00     0.053 C 
ATOM      9  C   UNL d   1      -0.028  -1.846  -1.356  0.00  0.00     0.018 C 
ENDBRANCH   1   8
TORSDOF 1
ENDMDL
