MODEL 1
REMARK minimizedAffinity -3.73149943
REMARK minimizedRMSD -1
REMARK  1 active torsions:
REMARK  status: ('A' for Active; 'I' for Inactive)
REMARK    1  A    between atoms: C1_2  and  C2_3 
ROOT
ATOM      1  C2  UNL d   1      -0.250   0.041   0.242  0.00  0.00    -0.076 A 
ATOM      2  C3  UNL d   1       0.717   0.564  -0.635  0.00  0.00     0.004 A 
ATOM      3  C4  UNL d   1       0.845   1.938  -0.825  0.00  0.00    -0.003 A 
ATOM      4  C5  UNL d   1       0.009   2.813  -0.139  0.00  0.00     0.000 A 
ATOM      5  C6  UNL d   1      -0.943   2.314   0.748  0.00  0.00     0.000 A 
ATOM      6  C7  UNL d   1      -1.075   0.931   0.963  0.00  0.00    -0.073 A 
ATOM      7  C8  UNL d   1      -2.123   0.447   1.927  0.00  0.00     0.078 C 
ENDROOT
BRANCH   1   8
ATOM      8  C1  UNL d   1      -0.361  -1.460   0.387  0.00  0.00     0.053 C 
ATOM      9  C   UNL d   1      -0.124  -2.191  -0.926  0.00  0.00     0.018 C 
ENDBRANCH   1   8
TORSDOF 1
ENDMDL
