MODEL 1
REMARK minimizedAffinity -2.00312257
REMARK minimizedRMSD -1
REMARK  1 active torsions:
REMARK  status: ('A' for Active; 'I' for Inactive)
REMARK    1  A    between atoms: C1_2  and  C2_3 
ROOT
ATOM      1  C2  UNL d   1      -0.715   2.447   1.056  0.00  0.00    -0.076 A 
ATOM      2  C3  UNL d   1       0.101   3.274   0.265  0.00  0.00     0.004 A 
ATOM      3  C4  UNL d   1       0.920   2.737  -0.727  0.00  0.00    -0.003 A 
ATOM      4  C5  UNL d   1       0.935   1.364  -0.945  0.00  0.00     0.000 A 
ATOM      5  C6  UNL d   1       0.119   0.530  -0.181  0.00  0.00     0.000 A 
ATOM      6  C7  UNL d   1      -0.725   1.057   0.812  0.00  0.00    -0.073 A 
ATOM      7  C8  UNL d   1      -1.579   0.111   1.610  0.00  0.00     0.078 C 
ENDROOT
BRANCH   1   8
ATOM      8  C1  UNL d   1      -1.562   3.083   2.135  0.00  0.00     0.053 C 
ATOM      9  C   UNL d   1      -0.742   3.510   3.343  0.00  0.00     0.018 C 
ENDBRANCH   1   8
TORSDOF 1
ENDMDL
