MODEL 1
REMARK minimizedAffinity 11.3899889
REMARK minimizedRMSD -1
REMARK  1 active torsions:
REMARK  status: ('A' for Active; 'I' for Inactive)
REMARK    1  A    between atoms: C1_2  and  C2_3 
ROOT
ATOM      1  C2  UNL d   1       3.764   2.430  -5.190  0.00  0.00    -0.076 A 
ATOM      2  C3  UNL d   1       4.895   2.122  -5.966  0.00  0.00     0.004 A 
ATOM      3  C4  UNL d   1       5.999   2.972  -5.993  0.00  0.00    -0.003 A 
ATOM      4  C5  UNL d   1       5.990   4.144  -5.244  0.00  0.00     0.000 A 
ATOM      5  C6  UNL d   1       4.884   4.456  -4.455  0.00  0.00     0.000 A 
ATOM      6  C7  UNL d   1       3.769   3.601  -4.404  0.00  0.00    -0.073 A 
ATOM      7  C8  UNL d   1       2.600   3.990  -3.540  0.00  0.00     0.078 C 
ENDROOT
BRANCH   1   8
ATOM      8  C1  UNL d   1       2.585   1.483  -5.222  0.00  0.00     0.053 C 
ATOM      9  C   UNL d   1       2.619   0.473  -4.085  0.00  0.00     0.018 C 
ENDBRANCH   1   8
TORSDOF 1
ENDMDL
