MODEL 1
REMARK minimizedAffinity 0.13264972
REMARK minimizedRMSD -1
REMARK  1 active torsions:
REMARK  status: ('A' for Active; 'I' for Inactive)
REMARK    1  A    between atoms: C1_2  and  C2_3 
ROOT
ATOM      1  C2  UNL d   1       3.565   3.749  -4.167  0.00  0.00    -0.076 A 
ATOM      2  C3  UNL d   1       4.821   4.106  -3.645  0.00  0.00     0.004 A 
ATOM      3  C4  UNL d   1       5.999   3.726  -4.286  0.00  0.00    -0.003 A 
ATOM      4  C5  UNL d   1       5.940   2.981  -5.459  0.00  0.00     0.000 A 
ATOM      5  C6  UNL d   1       4.703   2.633  -6.000  0.00  0.00     0.000 A 
ATOM      6  C7  UNL d   1       3.506   3.022  -5.375  0.00  0.00    -0.073 A 
ATOM      7  C8  UNL d   1       2.200   2.614  -5.999  0.00  0.00     0.078 C 
ENDROOT
BRANCH   1   8
ATOM      8  C1  UNL d   1       2.322   4.166  -3.413  0.00  0.00     0.053 C 
ATOM      9  C   UNL d   1       2.009   5.645  -3.581  0.00  0.00     0.018 C 
ENDBRANCH   1   8
TORSDOF 1
ENDMDL
