MODEL 1
REMARK minimizedAffinity -2.53685212
REMARK minimizedRMSD -1
REMARK  1 active torsions:
REMARK  status: ('A' for Active; 'I' for Inactive)
REMARK    1  A    between atoms: C1_2  and  C2_3 
ROOT
ATOM      1  C2  UNL d   1      -0.879  -3.044  -0.805  0.00  0.00    -0.076 A 
ATOM      2  C3  UNL d   1      -2.109  -3.607  -0.422  0.00  0.00     0.004 A 
ATOM      3  C4  UNL d   1      -2.867  -4.354  -1.321  0.00  0.00    -0.003 A 
ATOM      4  C5  UNL d   1      -2.408  -4.551  -2.619  0.00  0.00     0.000 A 
ATOM      5  C6  UNL d   1      -1.182  -4.015  -3.011  0.00  0.00     0.000 A 
ATOM      6  C7  UNL d   1      -0.397  -3.273  -2.112  0.00  0.00    -0.073 A 
ATOM      7  C8  UNL d   1       0.915  -2.713  -2.590  0.00  0.00     0.078 C 
ENDROOT
BRANCH   1   8
ATOM      8  C1  UNL d   1      -0.113  -2.220   0.205  0.00  0.00     0.053 C 
ATOM      9  C   UNL d   1      -0.378  -0.730   0.063  0.00  0.00     0.018 C 
ENDBRANCH   1   8
TORSDOF 1
ENDMDL
