MODEL 1
REMARK minimizedAffinity -3.14152718
REMARK minimizedRMSD -1
REMARK  1 active torsions:
REMARK  status: ('A' for Active; 'I' for Inactive)
REMARK    1  A    between atoms: C1_2  and  C2_3 
ROOT
ATOM      1  C2  UNL d   1      -0.003   0.039   0.050  0.00  0.00    -0.076 A 
ATOM      2  C3  UNL d   1      -0.689  -1.120  -0.353  0.00  0.00     0.004 A 
ATOM      3  C4  UNL d   1      -0.060  -2.364  -0.352  0.00  0.00    -0.003 A 
ATOM      4  C5  UNL d   1       1.265  -2.469   0.053  0.00  0.00     0.000 A 
ATOM      5  C6  UNL d   1       1.957  -1.334   0.473  0.00  0.00     0.000 A 
ATOM      6  C7  UNL d   1       1.332  -0.075   0.494  0.00  0.00    -0.073 A 
ATOM      7  C8  UNL d   1       2.127   1.118   0.950  0.00  0.00     0.078 C 
ENDROOT
BRANCH   1   8
ATOM      8  C1  UNL d   1      -0.728   1.364   0.002  0.00  0.00     0.053 C 
ATOM      9  C   UNL d   1      -1.670   1.556   1.180  0.00  0.00     0.018 C 
ENDBRANCH   1   8
TORSDOF 1
ENDMDL
