MODEL 1
REMARK minimizedAffinity -3.67643189
REMARK minimizedRMSD -1
REMARK  1 active torsions:
REMARK  status: ('A' for Active; 'I' for Inactive)
REMARK    1  A    between atoms: C1_2  and  C2_3 
ROOT
ATOM      1  C2  UNL d   1       0.245  -0.383  -0.023  0.00  0.00    -0.076 A 
ATOM      2  C3  UNL d   1       1.377   0.215  -0.603  0.00  0.00     0.004 A 
ATOM      3  C4  UNL d   1       1.439   1.593  -0.802  0.00  0.00    -0.003 A 
ATOM      4  C5  UNL d   1       0.369   2.397  -0.423  0.00  0.00     0.000 A 
ATOM      5  C6  UNL d   1      -0.755   1.823   0.171  0.00  0.00     0.000 A 
ATOM      6  C7  UNL d   1      -0.826   0.437   0.393  0.00  0.00    -0.073 A 
ATOM      7  C8  UNL d   1      -2.065  -0.129   1.031  0.00  0.00     0.078 C 
ENDROOT
BRANCH   1   8
ATOM      8  C1  UNL d   1       0.223  -1.885   0.143  0.00  0.00     0.053 C 
ATOM      9  C   UNL d   1      -0.243  -2.604  -1.114  0.00  0.00     0.018 C 
ENDBRANCH   1   8
TORSDOF 1
ENDMDL
