MODEL 1
REMARK minimizedAffinity -2.78967476
REMARK minimizedRMSD -1
REMARK  1 active torsions:
REMARK  status: ('A' for Active; 'I' for Inactive)
REMARK    1  A    between atoms: C1_2  and  C2_3 
ROOT
ATOM      1  C2  UNL d   1      -0.986  -0.174   0.530  0.00  0.00    -0.076 A 
ATOM      2  C3  UNL d   1      -2.341   0.153   0.712  0.00  0.00     0.004 A 
ATOM      3  C4  UNL d   1      -2.737   1.472   0.929  0.00  0.00    -0.003 A 
ATOM      4  C5  UNL d   1      -1.785   2.485   0.966  0.00  0.00     0.000 A 
ATOM      5  C6  UNL d   1      -0.439   2.180   0.769  0.00  0.00     0.000 A 
ATOM      6  C7  UNL d   1      -0.024   0.858   0.534  0.00  0.00    -0.073 A 
ATOM      7  C8  UNL d   1       1.442   0.586   0.335  0.00  0.00     0.078 C 
ENDROOT
BRANCH   1   8
ATOM      8  C1  UNL d   1      -0.613  -1.625   0.327  0.00  0.00     0.053 C 
ATOM      9  C   UNL d   1      -0.727  -2.058  -1.127  0.00  0.00     0.018 C 
ENDBRANCH   1   8
TORSDOF 1
ENDMDL
