MODEL 1
REMARK minimizedAffinity -3.36562586
REMARK minimizedRMSD -1
REMARK  1 active torsions:
REMARK  status: ('A' for Active; 'I' for Inactive)
REMARK    1  A    between atoms: C1_2  and  C2_3 
ROOT
ATOM      1  C2  UNL d   1       0.180   1.344   0.348  0.00  0.00    -0.076 A 
ATOM      2  C3  UNL d   1      -0.901   0.472   0.564  0.00  0.00     0.004 A 
ATOM      3  C4  UNL d   1      -0.775  -0.898   0.340  0.00  0.00    -0.003 A 
ATOM      4  C5  UNL d   1       0.436  -1.419  -0.103  0.00  0.00     0.000 A 
ATOM      5  C6  UNL d   1       1.525  -0.571  -0.305  0.00  0.00     0.000 A 
ATOM      6  C7  UNL d   1       1.419   0.810  -0.069  0.00  0.00    -0.073 A 
ATOM      7  C8  UNL d   1       2.623   1.679  -0.309  0.00  0.00     0.078 C 
ENDROOT
BRANCH   1   8
ATOM      8  C1  UNL d   1      -0.024   2.823   0.582  0.00  0.00     0.053 C 
ATOM      9  C   UNL d   1      -0.679   3.117   1.923  0.00  0.00     0.018 C 
ENDBRANCH   1   8
TORSDOF 1
ENDMDL
