MODEL 1
REMARK minimizedAffinity -2.89455295
REMARK minimizedRMSD -1
REMARK  1 active torsions:
REMARK  status: ('A' for Active; 'I' for Inactive)
REMARK    1  A    between atoms: C1_2  and  C2_3 
ROOT
ATOM      1  C2  UNL d   1       0.833   1.247  -0.589  0.00  0.00    -0.076 A 
ATOM      2  C3  UNL d   1       2.154   0.949  -0.211  0.00  0.00     0.004 A 
ATOM      3  C4  UNL d   1       2.473  -0.273   0.379  0.00  0.00    -0.003 A 
ATOM      4  C5  UNL d   1       1.476  -1.217   0.601  0.00  0.00     0.000 A 
ATOM      5  C6  UNL d   1       0.163  -0.945   0.217  0.00  0.00     0.000 A 
ATOM      6  C7  UNL d   1      -0.172   0.276  -0.394  0.00  0.00    -0.073 A 
ATOM      7  C8  UNL d   1      -1.605   0.518  -0.783  0.00  0.00     0.078 C 
ENDROOT
BRANCH   1   8
ATOM      8  C1  UNL d   1       0.542   2.599  -1.200  0.00  0.00     0.053 C 
ATOM      9  C   UNL d   1       0.329   3.679  -0.150  0.00  0.00     0.018 C 
ENDBRANCH   1   8
TORSDOF 1
ENDMDL
