MODEL 1
REMARK minimizedAffinity 4.71025038
REMARK minimizedRMSD -1
REMARK  0 active torsions:
REMARK  status: ('A' for Active; 'I' for Inactive)
ROOT
ATOM      1  C   UNL d   1       5.997   0.685   2.369  0.00  0.00     0.077 C 
ATOM      2  C1  UNL d   1       5.248   0.992   3.632  0.00  0.00    -0.074 A 
ATOM      3  C2  UNL d   1       4.469   0.016   4.261  0.00  0.00    -0.005 A 
ATOM      4  C3  UNL d   1       3.785   0.314   5.439  0.00  0.00     0.006 A 
ATOM      5  C4  UNL d   1       3.874   1.589   6.000  0.00  0.00    -0.005 A 
ATOM      6  C5  UNL d   1       4.649   2.577   5.385  0.00  0.00    -0.074 A 
ATOM      7  C6  UNL d   1       4.762   3.950   5.980  0.00  0.00     0.077 C 
ATOM      8  C7  UNL d   1       5.338   2.268   4.205  0.00  0.00    -0.001 A 
ENDROOT
TORSDOF 0
ENDMDL
