MODEL 1
REMARK minimizedAffinity 19.7536964
REMARK minimizedRMSD -1
REMARK  0 active torsions:
REMARK  status: ('A' for Active; 'I' for Inactive)
ROOT
ATOM      1  C   UNL d   1      -3.942  -5.957   3.895  0.00  0.00     0.077 C 
ATOM      2  C1  UNL d   1      -2.740  -5.308   4.513  0.00  0.00    -0.074 A 
ATOM      3  C2  UNL d   1      -1.947  -5.995   5.438  0.00  0.00    -0.005 A 
ATOM      4  C3  UNL d   1      -0.827  -5.381   5.997  0.00  0.00     0.006 A 
ATOM      5  C4  UNL d   1      -0.488  -4.076   5.638  0.00  0.00    -0.005 A 
ATOM      6  C5  UNL d   1      -1.269  -3.373   4.715  0.00  0.00    -0.074 A 
ATOM      7  C6  UNL d   1      -0.913  -1.973   4.311  0.00  0.00     0.077 C 
ATOM      8  C7  UNL d   1      -2.389  -3.999   4.152  0.00  0.00    -0.001 A 
ENDROOT
TORSDOF 0
ENDMDL
