MODEL 1
REMARK minimizedAffinity 19.2517929
REMARK minimizedRMSD -1
REMARK  0 active torsions:
REMARK  status: ('A' for Active; 'I' for Inactive)
ROOT
ATOM      1  C   UNL d   1      -3.726  -0.392  -2.099  0.00  0.00     0.077 C 
ATOM      2  C1  UNL d   1      -2.690  -1.291  -1.493  0.00  0.00    -0.074 A 
ATOM      3  C2  UNL d   1      -2.073  -0.963  -0.281  0.00  0.00    -0.005 A 
ATOM      4  C3  UNL d   1      -1.118  -1.814   0.274  0.00  0.00     0.006 A 
ATOM      5  C4  UNL d   1      -0.770  -3.000  -0.375  0.00  0.00    -0.005 A 
ATOM      6  C5  UNL d   1      -1.377  -3.345  -1.586  0.00  0.00    -0.074 A 
ATOM      7  C6  UNL d   1      -1.022  -4.620  -2.292  0.00  0.00     0.077 C 
ATOM      8  C7  UNL d   1      -2.341  -2.488  -2.135  0.00  0.00    -0.001 A 
ENDROOT
TORSDOF 0
ENDMDL
