MODEL 1
REMARK minimizedAffinity 12.4643726
REMARK minimizedRMSD -1
REMARK  0 active torsions:
REMARK  status: ('A' for Active; 'I' for Inactive)
ROOT
ATOM      1  C   UNL d   1      -2.087  -1.367   1.124  0.00  0.00     0.077 C 
ATOM      2  C1  UNL d   1      -1.433  -1.302  -0.225  0.00  0.00    -0.074 A 
ATOM      3  C2  UNL d   1      -2.150  -1.609  -1.386  0.00  0.00    -0.005 A 
ATOM      4  C3  UNL d   1      -1.531  -1.534  -2.634  0.00  0.00     0.006 A 
ATOM      5  C4  UNL d   1      -0.193  -1.153  -2.733  0.00  0.00    -0.005 A 
ATOM      6  C5  UNL d   1       0.539  -0.841  -1.583  0.00  0.00    -0.074 A 
ATOM      7  C6  UNL d   1       1.976  -0.420  -1.673  0.00  0.00     0.077 C 
ATOM      8  C7  UNL d   1      -0.091  -0.912  -0.333  0.00  0.00    -0.001 A 
ENDROOT
TORSDOF 0
ENDMDL
