MODEL 1
REMARK minimizedAffinity 15.3020229
REMARK minimizedRMSD -1
REMARK  0 active torsions:
REMARK  status: ('A' for Active; 'I' for Inactive)
ROOT
ATOM      1  C   UNL d   1      -3.145   0.530  -3.908  0.00  0.00     0.077 C 
ATOM      2  C1  UNL d   1      -2.798  -0.637  -3.032  0.00  0.00    -0.074 A 
ATOM      3  C2  UNL d   1      -1.958  -1.657  -3.492  0.00  0.00    -0.005 A 
ATOM      4  C3  UNL d   1      -1.636  -2.731  -2.663  0.00  0.00     0.006 A 
ATOM      5  C4  UNL d   1      -2.150  -2.797  -1.367  0.00  0.00    -0.005 A 
ATOM      6  C5  UNL d   1      -2.990  -1.786  -0.889  0.00  0.00    -0.074 A 
ATOM      7  C6  UNL d   1      -3.543  -1.837   0.504  0.00  0.00     0.077 C 
ATOM      8  C7  UNL d   1      -3.304  -0.707  -1.726  0.00  0.00    -0.001 A 
ENDROOT
TORSDOF 0
ENDMDL
