MODEL 1
REMARK minimizedAffinity 15.3950558
REMARK minimizedRMSD -1
REMARK  0 active torsions:
REMARK  status: ('A' for Active; 'I' for Inactive)
ROOT
ATOM      1  C   UNL d   1       2.367   0.817  -2.505  0.00  0.00     0.077 C 
ATOM      2  C1  UNL d   1       2.885   1.703  -1.411  0.00  0.00    -0.074 A 
ATOM      3  C2  UNL d   1       2.327   1.664  -0.129  0.00  0.00    -0.005 A 
ATOM      4  C3  UNL d   1       2.825   2.487   0.880  0.00  0.00     0.006 A 
ATOM      5  C4  UNL d   1       3.885   3.356   0.619  0.00  0.00    -0.005 A 
ATOM      6  C5  UNL d   1       4.457   3.408  -0.656  0.00  0.00    -0.074 A 
ATOM      7  C6  UNL d   1       5.603   4.329  -0.951  0.00  0.00     0.077 C 
ATOM      8  C7  UNL d   1       3.955   2.573  -1.664  0.00  0.00    -0.001 A 
ENDROOT
TORSDOF 0
ENDMDL
