MODEL 1
REMARK minimizedAffinity 9.42465496
REMARK minimizedRMSD -1
REMARK  0 active torsions:
REMARK  status: ('A' for Active; 'I' for Inactive)
ROOT
ATOM      1  C   UNL d   1       1.274   0.088  -1.947  0.00  0.00     0.077 C 
ATOM      2  C1  UNL d   1      -0.148  -0.383  -1.882  0.00  0.00    -0.074 A 
ATOM      3  C2  UNL d   1      -1.048  -0.095  -2.913  0.00  0.00    -0.005 A 
ATOM      4  C3  UNL d   1      -2.366  -0.547  -2.843  0.00  0.00     0.006 A 
ATOM      5  C4  UNL d   1      -2.796  -1.292  -1.744  0.00  0.00    -0.005 A 
ATOM      6  C5  UNL d   1      -1.910  -1.590  -0.704  0.00  0.00    -0.074 A 
ATOM      7  C6  UNL d   1      -2.353  -2.397   0.480  0.00  0.00     0.077 C 
ATOM      8  C7  UNL d   1      -0.586  -1.138  -0.785  0.00  0.00    -0.001 A 
ENDROOT
TORSDOF 0
ENDMDL
