MODEL 1
REMARK minimizedAffinity 18.8507137
REMARK minimizedRMSD -1
REMARK  0 active torsions:
REMARK  status: ('A' for Active; 'I' for Inactive)
ROOT
ATOM      1  C   UNL d   1      -2.194  -1.350  -0.955  0.00  0.00     0.077 C 
ATOM      2  C1  UNL d   1      -1.686  -2.006   0.294  0.00  0.00    -0.074 A 
ATOM      3  C2  UNL d   1      -0.725  -3.021   0.233  0.00  0.00    -0.005 A 
ATOM      4  C3  UNL d   1      -0.255  -3.615   1.404  0.00  0.00     0.006 A 
ATOM      5  C4  UNL d   1      -0.739  -3.201   2.646  0.00  0.00    -0.005 A 
ATOM      6  C5  UNL d   1      -1.698  -2.187   2.727  0.00  0.00    -0.074 A 
ATOM      7  C6  UNL d   1      -2.222  -1.723   4.054  0.00  0.00     0.077 C 
ATOM      8  C7  UNL d   1      -2.161  -1.590   1.546  0.00  0.00    -0.001 A 
ENDROOT
TORSDOF 0
ENDMDL
