MODEL 1
REMARK minimizedAffinity 3.287606
REMARK minimizedRMSD -1
REMARK  0 active torsions:
REMARK  status: ('A' for Active; 'I' for Inactive)
ROOT
ATOM      1  C   UNL d   1      -4.092   5.985  -2.413  0.00  0.00     0.077 C 
ATOM      2  C1  UNL d   1      -4.534   5.423  -1.095  0.00  0.00    -0.074 A 
ATOM      3  C2  UNL d   1      -5.594   6.000  -0.386  0.00  0.00    -0.005 A 
ATOM      4  C3  UNL d   1      -6.000   5.460   0.834  0.00  0.00     0.006 A 
ATOM      5  C4  UNL d   1      -5.352   4.341   1.358  0.00  0.00    -0.005 A 
ATOM      6  C5  UNL d   1      -4.292   3.750   0.663  0.00  0.00    -0.074 A 
ATOM      7  C6  UNL d   1      -3.591   2.540   1.207  0.00  0.00     0.077 C 
ATOM      8  C7  UNL d   1      -3.894   4.293  -0.566  0.00  0.00    -0.001 A 
ENDROOT
TORSDOF 0
ENDMDL
