MODEL 1
REMARK minimizedAffinity 5.44104815
REMARK minimizedRMSD -1
REMARK  0 active torsions:
REMARK  status: ('A' for Active; 'I' for Inactive)
ROOT
ATOM      1  C   UNL d   1      -3.130   3.227   2.216  0.00  0.00     0.077 C 
ATOM      2  C1  UNL d   1      -4.011   4.188   1.475  0.00  0.00    -0.074 A 
ATOM      3  C2  UNL d   1      -5.195   4.664   2.047  0.00  0.00    -0.005 A 
ATOM      4  C3  UNL d   1      -6.000   5.566   1.350  0.00  0.00     0.006 A 
ATOM      5  C4  UNL d   1      -5.628   6.000   0.077  0.00  0.00    -0.005 A 
ATOM      6  C5  UNL d   1      -4.447   5.536  -0.510  0.00  0.00    -0.074 A 
ATOM      7  C6  UNL d   1      -4.028   6.000  -1.874  0.00  0.00     0.077 C 
ATOM      8  C7  UNL d   1      -3.640   4.635   0.199  0.00  0.00    -0.001 A 
ENDROOT
TORSDOF 0
ENDMDL
