MODEL 1
REMARK minimizedAffinity 18.1579342
REMARK minimizedRMSD -1
REMARK  0 active torsions:
REMARK  status: ('A' for Active; 'I' for Inactive)
ROOT
ATOM      1  C   UNL d   1      -0.866  -5.852  -2.112  0.00  0.00     0.077 C 
ATOM      2  C1  UNL d   1      -0.927  -4.355  -2.179  0.00  0.00    -0.074 A 
ATOM      3  C2  UNL d   1      -0.739  -3.682  -3.391  0.00  0.00    -0.005 A 
ATOM      4  C3  UNL d   1      -0.808  -2.290  -3.439  0.00  0.00     0.006 A 
ATOM      5  C4  UNL d   1      -1.065  -1.558  -2.279  0.00  0.00    -0.005 A 
ATOM      6  C5  UNL d   1      -1.256  -2.214  -1.059  0.00  0.00    -0.074 A 
ATOM      7  C6  UNL d   1      -1.543  -1.443   0.195  0.00  0.00     0.077 C 
ATOM      8  C7  UNL d   1      -1.192  -3.614  -1.020  0.00  0.00    -0.001 A 
ENDROOT
TORSDOF 0
ENDMDL
