MODEL 1
REMARK minimizedAffinity 16.9098072
REMARK minimizedRMSD -1
REMARK  0 active torsions:
REMARK  status: ('A' for Active; 'I' for Inactive)
ROOT
ATOM      1  C   UNL d   1      -2.669  -5.944   5.234  0.00  0.00     0.077 C 
ATOM      2  C1  UNL d   1      -2.029  -4.587   5.256  0.00  0.00    -0.074 A 
ATOM      3  C2  UNL d   1      -0.865  -4.354   5.996  0.00  0.00    -0.005 A 
ATOM      4  C3  UNL d   1      -0.276  -3.090   6.000  0.00  0.00     0.006 A 
ATOM      5  C4  UNL d   1      -0.844  -2.048   5.266  0.00  0.00    -0.005 A 
ATOM      6  C5  UNL d   1      -2.007  -2.262   4.520  0.00  0.00    -0.074 A 
ATOM      7  C6  UNL d   1      -2.625  -1.156   3.717  0.00  0.00     0.077 C 
ATOM      8  C7  UNL d   1      -2.589  -3.537   4.515  0.00  0.00    -0.001 A 
ENDROOT
TORSDOF 0
ENDMDL
