MODEL 1
REMARK minimizedAffinity 8.49255562
REMARK minimizedRMSD -1
REMARK  0 active torsions:
REMARK  status: ('A' for Active; 'I' for Inactive)
ROOT
ATOM      1  C   UNL d   1       6.000   2.221  -2.666  0.00  0.00     0.077 C 
ATOM      2  C1  UNL d   1       5.212   2.745  -1.502  0.00  0.00    -0.074 A 
ATOM      3  C2  UNL d   1       4.310   1.924  -0.817  0.00  0.00    -0.005 A 
ATOM      4  C3  UNL d   1       3.591   2.423   0.270  0.00  0.00     0.006 A 
ATOM      5  C4  UNL d   1       3.766   3.744   0.681  0.00  0.00    -0.005 A 
ATOM      6  C5  UNL d   1       4.664   4.580   0.009  0.00  0.00    -0.074 A 
ATOM      7  C6  UNL d   1       4.871   6.000   0.444  0.00  0.00     0.077 C 
ATOM      8  C7  UNL d   1       5.388   4.069  -1.078  0.00  0.00    -0.001 A 
ENDROOT
TORSDOF 0
ENDMDL
