MODEL 1
REMARK minimizedAffinity 12.4338551
REMARK minimizedRMSD -1
REMARK  0 active torsions:
REMARK  status: ('A' for Active; 'I' for Inactive)
ROOT
ATOM      1  C   UNL d   1      -1.519  -2.436   4.145  0.00  0.00     0.077 C 
ATOM      2  C1  UNL d   1      -1.644  -2.437   2.651  0.00  0.00    -0.074 A 
ATOM      3  C2  UNL d   1      -0.888  -3.314   1.867  0.00  0.00    -0.005 A 
ATOM      4  C3  UNL d   1      -1.022  -3.310   0.478  0.00  0.00     0.006 A 
ATOM      5  C4  UNL d   1      -1.912  -2.430  -0.139  0.00  0.00    -0.005 A 
ATOM      6  C5  UNL d   1      -2.677  -1.546   0.629  0.00  0.00    -0.074 A 
ATOM      7  C6  UNL d   1      -3.645  -0.600  -0.018  0.00  0.00     0.077 C 
ATOM      8  C7  UNL d   1      -2.541  -1.561   2.024  0.00  0.00    -0.001 A 
ENDROOT
TORSDOF 0
ENDMDL
