MODEL 1
REMARK minimizedAffinity 6.27608013
REMARK minimizedRMSD -1
REMARK  0 active torsions:
REMARK  status: ('A' for Active; 'I' for Inactive)
ROOT
ATOM      1  C   UNL d   1      -3.598  -0.644   0.225  0.00  0.00     0.077 C 
ATOM      2  C1  UNL d   1      -2.531  -1.441   0.914  0.00  0.00    -0.074 A 
ATOM      3  C2  UNL d   1      -1.597  -2.178   0.179  0.00  0.00    -0.005 A 
ATOM      4  C3  UNL d   1      -0.604  -2.907   0.834  0.00  0.00     0.006 A 
ATOM      5  C4  UNL d   1      -0.536  -2.908   2.227  0.00  0.00    -0.005 A 
ATOM      6  C5  UNL d   1      -1.462  -2.176   2.979  0.00  0.00    -0.074 A 
ATOM      7  C6  UNL d   1      -1.397  -2.158   4.477  0.00  0.00     0.077 C 
ATOM      8  C7  UNL d   1      -2.452  -1.440   2.313  0.00  0.00    -0.001 A 
ENDROOT
TORSDOF 0
ENDMDL
