MODEL 1
REMARK minimizedAffinity 11.1551409
REMARK minimizedRMSD -1
REMARK  0 active torsions:
REMARK  status: ('A' for Active; 'I' for Inactive)
ROOT
ATOM      1  C   UNL d   1      -0.805  -2.097   5.687  0.00  0.00     0.077 C 
ATOM      2  C1  UNL d   1      -1.978  -1.168   5.803  0.00  0.00    -0.074 A 
ATOM      3  C2  UNL d   1      -1.795   0.217   5.852  0.00  0.00    -0.005 A 
ATOM      4  C3  UNL d   1      -2.896   1.068   5.950  0.00  0.00     0.006 A 
ATOM      5  C4  UNL d   1      -4.188   0.544   5.999  0.00  0.00    -0.005 A 
ATOM      6  C5  UNL d   1      -4.390  -0.839   5.950  0.00  0.00    -0.074 A 
ATOM      7  C6  UNL d   1      -5.772  -1.420   5.993  0.00  0.00     0.077 C 
ATOM      8  C7  UNL d   1      -3.279  -1.688   5.845  0.00  0.00    -0.001 A 
ENDROOT
TORSDOF 0
ENDMDL
