MODEL 1
REMARK minimizedAffinity 10.7061958
REMARK minimizedRMSD -1
REMARK  0 active torsions:
REMARK  status: ('A' for Active; 'I' for Inactive)
ROOT
ATOM      1  C   UNL d   1      -2.985  -1.418  -0.146  0.00  0.00     0.077 C 
ATOM      2  C1  UNL d   1      -2.135  -2.026   0.930  0.00  0.00    -0.074 A 
ATOM      3  C2  UNL d   1      -1.036  -2.830   0.609  0.00  0.00    -0.005 A 
ATOM      4  C3  UNL d   1      -0.249  -3.381   1.620  0.00  0.00     0.006 A 
ATOM      5  C4  UNL d   1      -0.552  -3.134   2.960  0.00  0.00    -0.005 A 
ATOM      6  C5  UNL d   1      -1.646  -2.332   3.300  0.00  0.00    -0.074 A 
ATOM      7  C6  UNL d   1      -1.979  -2.049   4.734  0.00  0.00     0.077 C 
ATOM      8  C7  UNL d   1      -2.428  -1.776   2.278  0.00  0.00    -0.001 A 
ENDROOT
TORSDOF 0
ENDMDL
