MODEL 1
REMARK minimizedAffinity 7.34162283
REMARK minimizedRMSD -1
REMARK  0 active torsions:
REMARK  status: ('A' for Active; 'I' for Inactive)
ROOT
ATOM      1  C   UNL d   1      -2.613   0.201   5.685  0.00  0.00     0.077 C 
ATOM      2  C1  UNL d   1      -2.279  -1.163   5.158  0.00  0.00    -0.074 A 
ATOM      3  C2  UNL d   1      -2.294  -2.281   5.997  0.00  0.00    -0.005 A 
ATOM      4  C3  UNL d   1      -1.990  -3.545   5.490  0.00  0.00     0.006 A 
ATOM      5  C4  UNL d   1      -1.669  -3.702   4.142  0.00  0.00    -0.005 A 
ATOM      6  C5  UNL d   1      -1.650  -2.596   3.287  0.00  0.00    -0.074 A 
ATOM      7  C6  UNL d   1      -1.317  -2.749   1.833  0.00  0.00     0.077 C 
ATOM      8  C7  UNL d   1      -1.963  -1.330   3.802  0.00  0.00    -0.001 A 
ENDROOT
TORSDOF 0
ENDMDL
