MODEL 1
REMARK minimizedAffinity 11.079237
REMARK minimizedRMSD -1
REMARK  0 active torsions:
REMARK  status: ('A' for Active; 'I' for Inactive)
ROOT
ATOM      1  C   UNL d   1      -4.774   6.000   0.416  0.00  0.00     0.023 A 
ATOM      2  C1  UNL d   1      -5.275   5.989  -0.885  0.00  0.00     0.003 A 
ATOM      3  C2  UNL d   1      -4.547   5.380  -1.910  0.00  0.00     0.048 A 
ATOM      4  C3  UNL d   1      -3.319   4.784  -1.626  0.00  0.00     0.023 A 
ATOM      5  C4  UNL d   1      -2.814   4.791  -0.324  0.00  0.00     0.048 A 
ATOM      6  C5  UNL d   1      -3.545   5.402   0.697  0.00  0.00     0.003 A 
ATOM      7  I   UNL d   1      -2.234   3.877  -3.149  0.00  0.00    -0.146 I 
ENDROOT
TORSDOF 0
ENDMDL
