MODEL 1
REMARK minimizedAffinity 15.8951387
REMARK minimizedRMSD -1
REMARK  0 active torsions:
REMARK  status: ('A' for Active; 'I' for Inactive)
ROOT
ATOM      1  C   UNL d   1       0.210  -1.787  -5.999  0.00  0.00     0.023 A 
ATOM      2  C1  UNL d   1       0.608  -3.124  -5.997  0.00  0.00     0.003 A 
ATOM      3  C2  UNL d   1       1.966  -3.450  -5.996  0.00  0.00     0.048 A 
ATOM      4  C3  UNL d   1       2.921  -2.434  -5.996  0.00  0.00     0.023 A 
ATOM      5  C4  UNL d   1       2.528  -1.095  -5.998  0.00  0.00     0.048 A 
ATOM      6  C5  UNL d   1       1.169  -0.773  -6.000  0.00  0.00     0.003 A 
ATOM      7  I   UNL d   1       4.942  -2.916  -5.994  0.00  0.00    -0.146 I 
ENDROOT
TORSDOF 0
ENDMDL
