MODEL 1
REMARK minimizedAffinity 10.9921713
REMARK minimizedRMSD -1
REMARK  0 active torsions:
REMARK  status: ('A' for Active; 'I' for Inactive)
ROOT
ATOM      1  C   UNL d   1       0.764  -2.072  -5.993  0.00  0.00     0.023 A 
ATOM      2  C1  UNL d   1       1.012  -3.445  -5.995  0.00  0.00     0.003 A 
ATOM      3  C2  UNL d   1       2.326  -3.918  -5.992  0.00  0.00     0.048 A 
ATOM      4  C3  UNL d   1       3.387  -3.014  -5.987  0.00  0.00     0.023 A 
ATOM      5  C4  UNL d   1       3.144  -1.639  -5.984  0.00  0.00     0.048 A 
ATOM      6  C5  UNL d   1       1.829  -1.170  -5.988  0.00  0.00     0.003 A 
ATOM      7  I   UNL d   1       5.343  -3.716  -5.982  0.00  0.00    -0.146 I 
ENDROOT
TORSDOF 0
ENDMDL
