MODEL 1
REMARK minimizedAffinity 16.5709972
REMARK minimizedRMSD -1
REMARK  0 active torsions:
REMARK  status: ('A' for Active; 'I' for Inactive)
ROOT
ATOM      1  C   UNL d   1      -0.804  -2.626   4.788  0.00  0.00     0.023 A 
ATOM      2  C1  UNL d   1      -1.005  -3.881   4.215  0.00  0.00     0.003 A 
ATOM      3  C2  UNL d   1      -2.296  -4.304   3.890  0.00  0.00     0.048 A 
ATOM      4  C3  UNL d   1      -3.381  -3.466   4.142  0.00  0.00     0.023 A 
ATOM      5  C4  UNL d   1      -3.185  -2.209   4.715  0.00  0.00     0.048 A 
ATOM      6  C5  UNL d   1      -1.893  -1.791   5.038  0.00  0.00     0.003 A 
ATOM      7  I   UNL d   1      -5.303  -4.093   3.660  0.00  0.00    -0.146 I 
ENDROOT
TORSDOF 0
ENDMDL
