MODEL 1
REMARK minimizedAffinity 11.6899099
REMARK minimizedRMSD -1
REMARK  0 active torsions:
REMARK  status: ('A' for Active; 'I' for Inactive)
ROOT
ATOM      1  C   UNL d   1      -1.867  -1.944   4.821  0.00  0.00     0.023 A 
ATOM      2  C1  UNL d   1      -2.741  -1.682   5.877  0.00  0.00     0.003 A 
ATOM      3  C2  UNL d   1      -3.927  -2.407   6.000  0.00  0.00     0.048 A 
ATOM      4  C3  UNL d   1      -4.234  -3.394   5.064  0.00  0.00     0.023 A 
ATOM      5  C4  UNL d   1      -3.363  -3.661   4.006  0.00  0.00     0.048 A 
ATOM      6  C5  UNL d   1      -2.178  -2.932   3.887  0.00  0.00     0.003 A 
ATOM      7  I   UNL d   1      -6.000  -4.476   5.245  0.00  0.00    -0.146 I 
ENDROOT
TORSDOF 0
ENDMDL
