MODEL 1
REMARK minimizedAffinity 17.0484924
REMARK minimizedRMSD -1
REMARK  0 active torsions:
REMARK  status: ('A' for Active; 'I' for Inactive)
ROOT
ATOM      1  C   UNL d   1      -4.704   6.000   1.971  0.00  0.00     0.023 A 
ATOM      2  C1  UNL d   1      -5.810   5.971   1.121  0.00  0.00     0.003 A 
ATOM      3  C2  UNL d   1      -5.627   5.892  -0.261  0.00  0.00     0.048 A 
ATOM      4  C3  UNL d   1      -4.337   5.842  -0.787  0.00  0.00     0.023 A 
ATOM      5  C4  UNL d   1      -3.227   5.870   0.060  0.00  0.00     0.048 A 
ATOM      6  C5  UNL d   1      -3.415   5.950   1.441  0.00  0.00     0.003 A 
ATOM      7  I   UNL d   1      -4.063   5.724  -2.844  0.00  0.00    -0.146 I 
ENDROOT
TORSDOF 0
ENDMDL
