MODEL 1
REMARK minimizedAffinity 18.741188
REMARK minimizedRMSD -1
REMARK  0 active torsions:
REMARK  status: ('A' for Active; 'I' for Inactive)
ROOT
ATOM      1  C   UNL d   1      -4.836   2.973  -3.696  0.00  0.00     0.023 A 
ATOM      2  C1  UNL d   1      -4.053   1.841  -3.921  0.00  0.00     0.003 A 
ATOM      3  C2  UNL d   1      -2.671   1.896  -3.725  0.00  0.00     0.048 A 
ATOM      4  C3  UNL d   1      -2.080   3.086  -3.302  0.00  0.00     0.023 A 
ATOM      5  C4  UNL d   1      -2.860   4.221  -3.074  0.00  0.00     0.048 A 
ATOM      6  C5  UNL d   1      -4.241   4.161  -3.272  0.00  0.00     0.003 A 
ATOM      7  I   UNL d   1      -0.024   3.171  -3.009  0.00  0.00    -0.146 I 
ENDROOT
TORSDOF 0
ENDMDL
