MODEL 1
REMARK minimizedAffinity 14.1377001
REMARK minimizedRMSD -1
REMARK  0 active torsions:
REMARK  status: ('A' for Active; 'I' for Inactive)
ROOT
ATOM      1  C   UNL d   1      -4.472   5.293  -1.397  0.00  0.00     0.023 A 
ATOM      2  C1  UNL d   1      -3.413   5.057  -0.520  0.00  0.00     0.003 A 
ATOM      3  C2  UNL d   1      -3.582   5.259   0.851  0.00  0.00     0.048 A 
ATOM      4  C3  UNL d   1      -4.812   5.696   1.340  0.00  0.00     0.023 A 
ATOM      5  C4  UNL d   1      -5.876   5.932   0.467  0.00  0.00     0.048 A 
ATOM      6  C5  UNL d   1      -5.702   5.730  -0.904  0.00  0.00     0.003 A 
ATOM      7  I   UNL d   1      -5.066   5.997   3.380  0.00  0.00    -0.146 I 
ENDROOT
TORSDOF 0
ENDMDL
