MODEL 1
REMARK minimizedAffinity 16.7219734
REMARK minimizedRMSD -1
REMARK  0 active torsions:
REMARK  status: ('A' for Active; 'I' for Inactive)
ROOT
ATOM      1  C   UNL d   1      -0.813   2.896  -1.710  0.00  0.00     0.023 A 
ATOM      2  C1  UNL d   1      -1.180   3.384  -2.965  0.00  0.00     0.003 A 
ATOM      3  C2  UNL d   1      -0.344   4.274  -3.641  0.00  0.00     0.048 A 
ATOM      4  C3  UNL d   1       0.859   4.672  -3.058  0.00  0.00     0.023 A 
ATOM      5  C4  UNL d   1       1.231   4.185  -1.804  0.00  0.00     0.048 A 
ATOM      6  C5  UNL d   1       0.391   3.296  -1.131  0.00  0.00     0.003 A 
ATOM      7  I   UNL d   1       2.106   5.996  -4.063  0.00  0.00    -0.146 I 
ENDROOT
TORSDOF 0
ENDMDL
