MODEL 1
REMARK minimizedAffinity 4.99047661
REMARK minimizedRMSD -1
REMARK  0 active torsions:
REMARK  status: ('A' for Active; 'I' for Inactive)
ROOT
ATOM      1  C   UNL d   1      -0.373   4.913  -2.174  0.00  0.00     0.023 A 
ATOM      2  C1  UNL d   1       0.142   5.170  -0.903  0.00  0.00     0.003 A 
ATOM      3  C2  UNL d   1       0.056   4.199   0.096  0.00  0.00     0.048 A 
ATOM      4  C3  UNL d   1      -0.546   2.972  -0.182  0.00  0.00     0.023 A 
ATOM      5  C4  UNL d   1      -1.063   2.710  -1.452  0.00  0.00     0.048 A 
ATOM      6  C5  UNL d   1      -0.975   3.685  -2.448  0.00  0.00     0.003 A 
ATOM      7  I   UNL d   1      -0.676   1.525   1.304  0.00  0.00    -0.146 I 
ENDROOT
TORSDOF 0
ENDMDL
