MODEL 1
REMARK minimizedAffinity 4.64588118
REMARK minimizedRMSD -1
REMARK  0 active torsions:
REMARK  status: ('A' for Active; 'I' for Inactive)
ROOT
ATOM      1  C   UNL d   1      -0.262   2.501   0.343  0.00  0.00     0.023 A 
ATOM      2  C1  UNL d   1      -0.269   3.833  -0.074  0.00  0.00     0.003 A 
ATOM      3  C2  UNL d   1      -1.316   4.677   0.302  0.00  0.00     0.048 A 
ATOM      4  C3  UNL d   1      -2.352   4.184   1.094  0.00  0.00     0.023 A 
ATOM      5  C4  UNL d   1      -2.348   2.853   1.514  0.00  0.00     0.048 A 
ATOM      6  C5  UNL d   1      -1.300   2.012   1.135  0.00  0.00     0.003 A 
ATOM      7  I   UNL d   1      -3.911   5.439   1.655  0.00  0.00    -0.146 I 
ENDROOT
TORSDOF 0
ENDMDL
