MODEL 1
REMARK minimizedAffinity -0.36990267
REMARK minimizedRMSD -1
REMARK  0 active torsions:
REMARK  status: ('A' for Active; 'I' for Inactive)
ROOT
ATOM      1  C   UNL d   1       0.146   4.125   0.905  0.00  0.00     0.023 A 
ATOM      2  C1  UNL d   1       0.227   4.997  -0.181  0.00  0.00     0.003 A 
ATOM      3  C2  UNL d   1      -0.148   4.564  -1.454  0.00  0.00     0.048 A 
ATOM      4  C3  UNL d   1      -0.604   3.259  -1.635  0.00  0.00     0.023 A 
ATOM      5  C4  UNL d   1      -0.687   2.383  -0.551  0.00  0.00     0.048 A 
ATOM      6  C5  UNL d   1      -0.310   2.820   0.720  0.00  0.00     0.003 A 
ATOM      7  I   UNL d   1      -1.163   2.613  -3.530  0.00  0.00    -0.146 I 
ENDROOT
TORSDOF 0
ENDMDL
