MODEL 1
REMARK minimizedAffinity 4.66073751
REMARK minimizedRMSD -1
REMARK  0 active torsions:
REMARK  status: ('A' for Active; 'I' for Inactive)
ROOT
ATOM      1  C   UNL d   1       0.287   4.719  -0.063  0.00  0.00     0.023 A 
ATOM      2  C1  UNL d   1       0.379   3.422   0.442  0.00  0.00     0.003 A 
ATOM      3  C2  UNL d   1      -0.217   2.361  -0.243  0.00  0.00     0.048 A 
ATOM      4  C3  UNL d   1      -0.904   2.604  -1.432  0.00  0.00     0.023 A 
ATOM      5  C4  UNL d   1      -0.998   3.900  -1.941  0.00  0.00     0.048 A 
ATOM      6  C5  UNL d   1      -0.401   4.958  -1.253  0.00  0.00     0.003 A 
ATOM      7  I   UNL d   1      -1.792   1.026  -2.452  0.00  0.00    -0.146 I 
ENDROOT
TORSDOF 0
ENDMDL
