MODEL 1
REMARK minimizedAffinity 12.125392
REMARK minimizedRMSD -1
REMARK  0 active torsions:
REMARK  status: ('A' for Active; 'I' for Inactive)
ROOT
ATOM      1  C   UNL d   1       0.588   3.606  -2.203  0.00  0.00     0.023 A 
ATOM      2  C1  UNL d   1      -0.622   4.120  -2.668  0.00  0.00     0.003 A 
ATOM      3  C2  UNL d   1      -1.471   4.808  -1.798  0.00  0.00     0.048 A 
ATOM      4  C3  UNL d   1      -1.103   4.977  -0.464  0.00  0.00     0.023 A 
ATOM      5  C4  UNL d   1       0.107   4.465   0.006  0.00  0.00     0.048 A 
ATOM      6  C5  UNL d   1       0.952   3.778  -0.867  0.00  0.00     0.003 A 
ATOM      7  I   UNL d   1      -2.365   6.000   0.833  0.00  0.00    -0.146 I 
ENDROOT
TORSDOF 0
ENDMDL
