MODEL 1
REMARK minimizedAffinity 4.19563389
REMARK minimizedRMSD -1
REMARK  0 active torsions:
REMARK  status: ('A' for Active; 'I' for Inactive)
ROOT
ATOM      1  C   UNL d   1      -4.290   0.411  -0.683  0.00  0.00     0.023 A 
ATOM      2  C1  UNL d   1      -5.492   0.274   0.011  0.00  0.00     0.003 A 
ATOM      3  C2  UNL d   1      -5.985  -0.997   0.313  0.00  0.00     0.048 A 
ATOM      4  C3  UNL d   1      -5.269  -2.128  -0.080  0.00  0.00     0.023 A 
ATOM      5  C4  UNL d   1      -4.065  -1.996  -0.773  0.00  0.00     0.048 A 
ATOM      6  C5  UNL d   1      -3.577  -0.723  -1.074  0.00  0.00     0.003 A 
ATOM      7  I   UNL d   1      -5.999  -4.021   0.369  0.00  0.00    -0.146 I 
ENDROOT
TORSDOF 0
ENDMDL
