MODEL 1
REMARK minimizedAffinity 5.94673872
REMARK minimizedRMSD -1
REMARK  0 active torsions:
REMARK  status: ('A' for Active; 'I' for Inactive)
ROOT
ATOM      1  C   UNL d   1      -1.146   2.759  -2.325  0.00  0.00     0.023 A 
ATOM      2  C1  UNL d   1      -0.202   3.246  -1.421  0.00  0.00     0.003 A 
ATOM      3  C2  UNL d   1      -0.239   2.843  -0.085  0.00  0.00     0.048 A 
ATOM      4  C3  UNL d   1      -1.222   1.950   0.341  0.00  0.00     0.023 A 
ATOM      5  C4  UNL d   1      -2.168   1.458  -0.560  0.00  0.00     0.048 A 
ATOM      6  C5  UNL d   1      -2.128   1.866  -1.895  0.00  0.00     0.003 A 
ATOM      7  I   UNL d   1      -1.278   1.347   2.329  0.00  0.00    -0.146 I 
ENDROOT
TORSDOF 0
ENDMDL
