MODEL 1
REMARK minimizedAffinity 4.21608686
REMARK minimizedRMSD -1
REMARK  0 active torsions:
REMARK  status: ('A' for Active; 'I' for Inactive)
ROOT
ATOM      1  C   UNL d   1      -4.161   0.346  -2.334  0.00  0.00     0.023 A 
ATOM      2  C1  UNL d   1      -5.471   0.465  -1.870  0.00  0.00     0.003 A 
ATOM      3  C2  UNL d   1      -5.998  -0.499  -1.008  0.00  0.00     0.048 A 
ATOM      4  C3  UNL d   1      -5.210  -1.579  -0.613  0.00  0.00     0.023 A 
ATOM      5  C4  UNL d   1      -3.898  -1.702  -1.074  0.00  0.00     0.048 A 
ATOM      6  C5  UNL d   1      -3.375  -0.737  -1.936  0.00  0.00     0.003 A 
ATOM      7  I   UNL d   1      -5.993  -3.015   0.669  0.00  0.00    -0.146 I 
ENDROOT
TORSDOF 0
ENDMDL
