MODEL 1
REMARK minimizedAffinity -1.86037946
REMARK minimizedRMSD -1
REMARK  0 active torsions:
REMARK  status: ('A' for Active; 'I' for Inactive)
ROOT
ATOM      1  C   UNL d   1       0.357  -1.683   1.606  0.00  0.00     0.077 C 
ATOM      2  C1  UNL d   1       0.065  -0.544   0.675  0.00  0.00    -0.074 A 
ATOM      3  C2  UNL d   1       0.775   0.658   0.765  0.00  0.00    -0.005 A 
ATOM      4  C3  UNL d   1       0.498   1.705  -0.114  0.00  0.00     0.006 A 
ATOM      5  C4  UNL d   1      -0.489   1.562  -1.090  0.00  0.00    -0.005 A 
ATOM      6  C5  UNL d   1      -1.208   0.367  -1.195  0.00  0.00    -0.074 A 
ATOM      7  C6  UNL d   1      -2.266   0.192  -2.244  0.00  0.00     0.077 C 
ATOM      8  C7  UNL d   1      -0.920  -0.683  -0.313  0.00  0.00    -0.001 A 
ENDROOT
TORSDOF 0
ENDMDL
