MODEL 1
REMARK minimizedAffinity -1.48615611
REMARK minimizedRMSD -1
REMARK  0 active torsions:
REMARK  status: ('A' for Active; 'I' for Inactive)
ROOT
ATOM      1  C   UNL d   1       2.593  -0.257   0.023  0.00  0.00     0.077 C 
ATOM      2  C1  UNL d   1       1.152  -0.669   0.074  0.00  0.00    -0.074 A 
ATOM      3  C2  UNL d   1       0.728  -1.698   0.922  0.00  0.00    -0.005 A 
ATOM      4  C3  UNL d   1      -0.618  -2.063   0.965  0.00  0.00     0.006 A 
ATOM      5  C4  UNL d   1      -1.551  -1.406   0.164  0.00  0.00    -0.005 A 
ATOM      6  C5  UNL d   1      -1.146  -0.374  -0.690  0.00  0.00    -0.074 A 
ATOM      7  C6  UNL d   1      -2.138   0.350  -1.551  0.00  0.00     0.077 C 
ATOM      8  C7  UNL d   1       0.206  -0.008  -0.723  0.00  0.00    -0.001 A 
ENDROOT
TORSDOF 0
ENDMDL
