MODEL 1
REMARK minimizedAffinity -1.2844274
REMARK minimizedRMSD -1
REMARK  0 active torsions:
REMARK  status: ('A' for Active; 'I' for Inactive)
ROOT
ATOM      1  C   UNL d   1       1.591   0.809   0.188  0.00  0.00     0.077 C 
ATOM      2  C1  UNL d   1       0.246   0.228  -0.135  0.00  0.00    -0.074 A 
ATOM      3  C2  UNL d   1      -0.490  -0.462   0.834  0.00  0.00    -0.005 A 
ATOM      4  C3  UNL d   1      -1.743  -0.988   0.522  0.00  0.00     0.006 A 
ATOM      5  C4  UNL d   1      -2.273  -0.830  -0.759  0.00  0.00    -0.005 A 
ATOM      6  C5  UNL d   1      -1.552  -0.142  -1.741  0.00  0.00    -0.074 A 
ATOM      7  C6  UNL d   1      -2.111   0.045  -3.120  0.00  0.00     0.077 C 
ATOM      8  C7  UNL d   1      -0.296   0.390  -1.417  0.00  0.00    -0.001 A 
ENDROOT
TORSDOF 0
ENDMDL
