MODEL 1
REMARK minimizedAffinity -4.49673939
REMARK minimizedRMSD -1
REMARK  0 active torsions:
REMARK  status: ('A' for Active; 'I' for Inactive)
ROOT
ATOM      1  C   UNL d   1      -1.797   0.488  -0.029  0.00  0.00     0.077 C 
ATOM      2  C1  UNL d   1      -0.387   0.354   0.465  0.00  0.00    -0.074 A 
ATOM      3  C2  UNL d   1       0.596   1.274   0.090  0.00  0.00    -0.005 A 
ATOM      4  C3  UNL d   1       1.901   1.142   0.565  0.00  0.00     0.006 A 
ATOM      5  C4  UNL d   1       2.235   0.090   1.419  0.00  0.00    -0.005 A 
ATOM      6  C5  UNL d   1       1.264  -0.839   1.806  0.00  0.00    -0.074 A 
ATOM      7  C6  UNL d   1       1.603  -1.970   2.731  0.00  0.00     0.077 C 
ATOM      8  C7  UNL d   1      -0.046  -0.696   1.330  0.00  0.00    -0.001 A 
ENDROOT
TORSDOF 0
ENDMDL
