MODEL 1
REMARK minimizedAffinity -2.23480868
REMARK minimizedRMSD -1
REMARK  0 active torsions:
REMARK  status: ('A' for Active; 'I' for Inactive)
ROOT
ATOM      1  C   UNL d   1      -2.239   0.911  -1.036  0.00  0.00     0.077 C 
ATOM      2  C1  UNL d   1      -0.912   0.584  -0.419  0.00  0.00    -0.074 A 
ATOM      3  C2  UNL d   1      -0.009   1.596  -0.076  0.00  0.00    -0.005 A 
ATOM      4  C3  UNL d   1       1.217   1.276   0.506  0.00  0.00     0.006 A 
ATOM      5  C4  UNL d   1       1.553  -0.056   0.751  0.00  0.00    -0.005 A 
ATOM      6  C5  UNL d   1       0.663  -1.081   0.417  0.00  0.00    -0.074 A 
ATOM      7  C6  UNL d   1       1.004  -2.517   0.683  0.00  0.00     0.077 C 
ATOM      8  C7  UNL d   1      -0.571  -0.751  -0.162  0.00  0.00    -0.001 A 
ENDROOT
TORSDOF 0
ENDMDL
