MODEL 1
REMARK minimizedAffinity -2.38392901
REMARK minimizedRMSD -1
REMARK  0 active torsions:
REMARK  status: ('A' for Active; 'I' for Inactive)
ROOT
ATOM      1  C   UNL d   1      -2.740   0.364  -2.781  0.00  0.00     0.077 C 
ATOM      2  C1  UNL d   1      -2.051   0.122  -1.471  0.00  0.00    -0.074 A 
ATOM      3  C2  UNL d   1      -2.660  -0.640  -0.468  0.00  0.00    -0.005 A 
ATOM      4  C3  UNL d   1      -2.003  -0.864   0.742  0.00  0.00     0.006 A 
ATOM      5  C4  UNL d   1      -0.733  -0.330   0.961  0.00  0.00    -0.005 A 
ATOM      6  C5  UNL d   1      -0.108   0.434  -0.030  0.00  0.00    -0.074 A 
ATOM      7  C6  UNL d   1       1.261   1.007   0.186  0.00  0.00     0.077 C 
ATOM      8  C7  UNL d   1      -0.772   0.649  -1.246  0.00  0.00    -0.001 A 
ENDROOT
TORSDOF 0
ENDMDL
