MODEL 1
REMARK minimizedAffinity -3.1922195
REMARK minimizedRMSD -1
REMARK  0 active torsions:
REMARK  status: ('A' for Active; 'I' for Inactive)
ROOT
ATOM      1  C   UNL d   1      -1.345   0.264  -0.550  0.00  0.00     0.077 C 
ATOM      2  C1  UNL d   1      -0.012   0.296   0.137  0.00  0.00    -0.074 A 
ATOM      3  C2  UNL d   1       0.930   1.283  -0.168  0.00  0.00    -0.005 A 
ATOM      4  C3  UNL d   1       2.162   1.306   0.486  0.00  0.00     0.006 A 
ATOM      5  C4  UNL d   1       2.463   0.344   1.451  0.00  0.00    -0.005 A 
ATOM      6  C5  UNL d   1       1.533  -0.651   1.770  0.00  0.00    -0.074 A 
ATOM      7  C6  UNL d   1       1.836  -1.686   2.811  0.00  0.00     0.077 C 
ATOM      8  C7  UNL d   1       0.295  -0.663   1.113  0.00  0.00    -0.001 A 
ENDROOT
TORSDOF 0
ENDMDL
