MODEL 1
REMARK minimizedAffinity -2.63799834
REMARK minimizedRMSD -1
REMARK  0 active torsions:
REMARK  status: ('A' for Active; 'I' for Inactive)
ROOT
ATOM      1  C   UNL d   1      -3.706   2.524  -2.496  0.00  0.00     0.077 C 
ATOM      2  C1  UNL d   1      -2.927   1.256  -2.311  0.00  0.00    -0.074 A 
ATOM      3  C2  UNL d   1      -2.885   0.284  -3.316  0.00  0.00    -0.005 A 
ATOM      4  C3  UNL d   1      -2.148  -0.886  -3.133  0.00  0.00     0.006 A 
ATOM      5  C4  UNL d   1      -1.447  -1.096  -1.945  0.00  0.00    -0.005 A 
ATOM      6  C5  UNL d   1      -1.476  -0.136  -0.929  0.00  0.00    -0.074 A 
ATOM      7  C6  UNL d   1      -0.720  -0.342   0.350  0.00  0.00     0.077 C 
ATOM      8  C7  UNL d   1      -2.213   1.040  -1.123  0.00  0.00    -0.001 A 
ENDROOT
TORSDOF 0
ENDMDL
