MODEL 1
REMARK minimizedAffinity -4.06033421
REMARK minimizedRMSD -1
REMARK  0 active torsions:
REMARK  status: ('A' for Active; 'I' for Inactive)
ROOT
ATOM      1  C   UNL d   1       2.231  -0.613   1.729  0.00  0.00     0.077 C 
ATOM      2  C1  UNL d   1       1.457   0.160   0.702  0.00  0.00    -0.074 A 
ATOM      3  C2  UNL d   1       2.098   1.065  -0.150  0.00  0.00    -0.005 A 
ATOM      4  C3  UNL d   1       1.367   1.770  -1.106  0.00  0.00     0.006 A 
ATOM      5  C4  UNL d   1      -0.011   1.577  -1.219  0.00  0.00    -0.005 A 
ATOM      6  C5  UNL d   1      -0.669   0.675  -0.377  0.00  0.00    -0.074 A 
ATOM      7  C6  UNL d   1      -2.147   0.449  -0.492  0.00  0.00     0.077 C 
ATOM      8  C7  UNL d   1       0.074  -0.034   0.577  0.00  0.00    -0.001 A 
ENDROOT
TORSDOF 0
ENDMDL
