MODEL 1
REMARK minimizedAffinity -1.88495052
REMARK minimizedRMSD -1
REMARK  0 active torsions:
REMARK  status: ('A' for Active; 'I' for Inactive)
ROOT
ATOM      1  C   UNL d   1       2.712   0.763   1.173  0.00  0.00     0.077 C 
ATOM      2  C1  UNL d   1       1.274   0.522   0.819  0.00  0.00    -0.074 A 
ATOM      3  C2  UNL d   1       0.531   1.490   0.136  0.00  0.00    -0.005 A 
ATOM      4  C3  UNL d   1      -0.802   1.248  -0.196  0.00  0.00     0.006 A 
ATOM      5  C4  UNL d   1      -1.404   0.038   0.152  0.00  0.00    -0.005 A 
ATOM      6  C5  UNL d   1      -0.676  -0.942   0.834  0.00  0.00    -0.074 A 
ATOM      7  C6  UNL d   1      -1.304  -2.252   1.206  0.00  0.00     0.077 C 
ATOM      8  C7  UNL d   1       0.665  -0.694   1.157  0.00  0.00    -0.001 A 
ENDROOT
TORSDOF 0
ENDMDL
