MODEL 1
REMARK minimizedAffinity -3.86669111
REMARK minimizedRMSD -1
REMARK  0 active torsions:
REMARK  status: ('A' for Active; 'I' for Inactive)
ROOT
ATOM      1  C   UNL d   1       1.411   1.050   0.449  0.00  0.00     0.077 C 
ATOM      2  C1  UNL d   1       0.018   0.524   0.262  0.00  0.00    -0.074 A 
ATOM      3  C2  UNL d   1      -0.574  -0.300   1.224  0.00  0.00    -0.005 A 
ATOM      4  C3  UNL d   1      -1.873  -0.773   1.041  0.00  0.00     0.006 A 
ATOM      5  C4  UNL d   1      -2.592  -0.428  -0.104  0.00  0.00    -0.005 A 
ATOM      6  C5  UNL d   1      -2.016   0.396  -1.076  0.00  0.00    -0.074 A 
ATOM      7  C6  UNL d   1      -2.778   0.785  -2.308  0.00  0.00     0.077 C 
ATOM      8  C7  UNL d   1      -0.713   0.873  -0.882  0.00  0.00    -0.001 A 
ENDROOT
TORSDOF 0
ENDMDL
