MODEL 1
REMARK minimizedAffinity -0.754357338
REMARK minimizedRMSD -1
REMARK  0 active torsions:
REMARK  status: ('A' for Active; 'I' for Inactive)
ROOT
ATOM      1  O1  BZF d   1       5.552  -5.997  -3.205  0.00  0.00    -0.204 OA
ATOM      2  C2  BZF d   1       5.085  -5.948  -1.905  0.00  0.00     0.174 A 
ATOM      3  C3  BZF d   1       3.741  -5.840  -1.883  0.00  0.00    -0.012 A 
ATOM      4  C3A BZF d   1       3.336  -5.912  -3.254  0.00  0.00    -0.107 A 
ATOM      5  C4  BZF d   1       2.120  -5.877  -3.876  0.00  0.00     0.055 A 
ATOM      6  C5  BZF d   1       2.073  -5.897  -5.234  0.00  0.00    -0.016 A 
ATOM      7  C6  BZF d   1       3.219  -5.945  -6.000  0.00  0.00     0.022 A 
ATOM      8  C7  BZF d   1       4.447  -5.986  -5.427  0.00  0.00     0.029 A 
ATOM      9  C7A BZF d   1       4.497  -6.000  -4.055  0.00  0.00     0.058 A 
ENDROOT
TORSDOF 0
ENDMDL
