MODEL 1
REMARK minimizedAffinity -3.24401832
REMARK minimizedRMSD -1
REMARK  0 active torsions:
REMARK  status: ('A' for Active; 'I' for Inactive)
ROOT
ATOM      1  O1  BZF d   1       4.701  -5.933  -2.563  0.00  0.00    -0.204 OA
ATOM      2  C2  BZF d   1       5.993  -6.000  -3.050  0.00  0.00     0.174 A 
ATOM      3  C3  BZF d   1       6.000  -5.941  -4.397  0.00  0.00    -0.012 A 
ATOM      4  C3A BZF d   1       4.634  -5.737  -4.772  0.00  0.00    -0.107 A 
ATOM      5  C4  BZF d   1       4.004  -5.582  -5.974  0.00  0.00     0.055 A 
ATOM      6  C5  BZF d   1       2.649  -5.476  -6.000  0.00  0.00    -0.016 A 
ATOM      7  C6  BZF d   1       1.895  -5.525  -4.846  0.00  0.00     0.022 A 
ATOM      8  C7  BZF d   1       2.476  -5.672  -3.630  0.00  0.00     0.029 A 
ATOM      9  C7A BZF d   1       3.847  -5.747  -3.598  0.00  0.00     0.058 A 
ENDROOT
TORSDOF 0
ENDMDL
