MODEL 1
REMARK minimizedAffinity -1.26974714
REMARK minimizedRMSD -1
REMARK  0 active torsions:
REMARK  status: ('A' for Active; 'I' for Inactive)
ROOT
ATOM      1  O1  BZF d   1       5.771  -5.887  -4.644  0.00  0.00    -0.204 OA
ATOM      2  C2  BZF d   1       5.328  -5.999  -5.948  0.00  0.00     0.174 A 
ATOM      3  C3  BZF d   1       3.981  -5.967  -6.000  0.00  0.00    -0.012 A 
ATOM      4  C3A BZF d   1       3.557  -5.733  -4.653  0.00  0.00    -0.107 A 
ATOM      5  C4  BZF d   1       2.334  -5.584  -4.066  0.00  0.00     0.055 A 
ATOM      6  C5  BZF d   1       2.261  -5.441  -2.717  0.00  0.00    -0.016 A 
ATOM      7  C6  BZF d   1       3.391  -5.447  -1.924  0.00  0.00     0.022 A 
ATOM      8  C7  BZF d   1       4.627  -5.586  -2.462  0.00  0.00     0.029 A 
ATOM      9  C7A BZF d   1       4.706  -5.698  -3.829  0.00  0.00     0.058 A 
ENDROOT
TORSDOF 0
ENDMDL
