MODEL 1
REMARK minimizedAffinity -3.65177584
REMARK minimizedRMSD -1
REMARK  0 active torsions:
REMARK  status: ('A' for Active; 'I' for Inactive)
ROOT
ATOM      1  O1  BZF d   1       4.579  -5.987  -5.713  0.00  0.00    -0.204 OA
ATOM      2  C2  BZF d   1       3.220  -5.860  -5.930  0.00  0.00     0.174 A 
ATOM      3  C3  BZF d   1       2.556  -5.754  -4.761  0.00  0.00    -0.012 A 
ATOM      4  C3A BZF d   1       3.571  -5.727  -3.753  0.00  0.00    -0.107 A 
ATOM      5  C4  BZF d   1       3.540  -5.618  -2.392  0.00  0.00     0.055 A 
ATOM      6  C5  BZF d   1       4.705  -5.697  -1.696  0.00  0.00    -0.016 A 
ATOM      7  C6  BZF d   1       5.916  -5.890  -2.328  0.00  0.00     0.022 A 
ATOM      8  C7  BZF d   1       5.998  -5.998  -3.676  0.00  0.00     0.029 A 
ATOM      9  C7A BZF d   1       4.827  -5.885  -4.385  0.00  0.00     0.058 A 
ENDROOT
TORSDOF 0
ENDMDL
