MODEL 1
REMARK minimizedAffinity -1.57700777
REMARK minimizedRMSD -1
REMARK  0 active torsions:
REMARK  status: ('A' for Active; 'I' for Inactive)
ROOT
ATOM      1  O1  BZF d   1       4.785  -5.927  -2.359  0.00  0.00    -0.204 OA
ATOM      2  C2  BZF d   1       3.664  -5.922  -1.552  0.00  0.00     0.174 A 
ATOM      3  C3  BZF d   1       2.539  -5.890  -2.295  0.00  0.00    -0.012 A 
ATOM      4  C3A BZF d   1       2.983  -5.968  -3.653  0.00  0.00    -0.107 A 
ATOM      5  C4  BZF d   1       2.332  -5.994  -4.853  0.00  0.00     0.055 A 
ATOM      6  C5  BZF d   1       3.061  -5.999  -6.000  0.00  0.00    -0.016 A 
ATOM      7  C6  BZF d   1       4.441  -5.972  -5.983  0.00  0.00     0.022 A 
ATOM      8  C7  BZF d   1       5.131  -5.950  -4.817  0.00  0.00     0.029 A 
ATOM      9  C7A BZF d   1       4.397  -5.979  -3.656  0.00  0.00     0.058 A 
ENDROOT
TORSDOF 0
ENDMDL
