MODEL 1
REMARK minimizedAffinity -1.28971004
REMARK minimizedRMSD -1
REMARK  0 active torsions:
REMARK  status: ('A' for Active; 'I' for Inactive)
ROOT
ATOM      1  O1  BZF d   1       5.982  -5.665  -4.612  0.00  0.00    -0.204 OA
ATOM      2  C2  BZF d   1       5.591  -5.922  -5.911  0.00  0.00     0.174 A 
ATOM      3  C3  BZF d   1       4.247  -5.999  -6.000  0.00  0.00    -0.012 A 
ATOM      4  C3A BZF d   1       3.765  -5.684  -4.690  0.00  0.00    -0.107 A 
ATOM      5  C4  BZF d   1       2.515  -5.581  -4.149  0.00  0.00     0.055 A 
ATOM      6  C5  BZF d   1       2.390  -5.329  -2.820  0.00  0.00    -0.016 A 
ATOM      7  C6  BZF d   1       3.491  -5.180  -2.002  0.00  0.00     0.022 A 
ATOM      8  C7  BZF d   1       4.751  -5.269  -2.494  0.00  0.00     0.029 A 
ATOM      9  C7A BZF d   1       4.881  -5.491  -3.843  0.00  0.00     0.058 A 
ENDROOT
TORSDOF 0
ENDMDL
