MODEL 1
REMARK minimizedAffinity -4.80505085
REMARK minimizedRMSD -1
REMARK  0 active torsions:
REMARK  status: ('A' for Active; 'I' for Inactive)
ROOT
ATOM      1  O1  BZF d   1       4.630  -4.933  -6.000  0.00  0.00    -0.204 OA
ATOM      2  C2  BZF d   1       5.918  -4.703  -5.555  0.00  0.00     0.174 A 
ATOM      3  C3  BZF d   1       6.000  -4.874  -4.219  0.00  0.00    -0.012 A 
ATOM      4  C3A BZF d   1       4.702  -5.323  -3.817  0.00  0.00    -0.107 A 
ATOM      5  C4  BZF d   1       4.163  -5.678  -2.614  0.00  0.00     0.055 A 
ATOM      6  C5  BZF d   1       2.844  -6.000  -2.550  0.00  0.00    -0.016 A 
ATOM      7  C6  BZF d   1       2.036  -5.973  -3.668  0.00  0.00     0.022 A 
ATOM      8  C7  BZF d   1       2.527  -5.633  -4.884  0.00  0.00     0.029 A 
ATOM      9  C7A BZF d   1       3.866  -5.339  -4.958  0.00  0.00     0.058 A 
ENDROOT
TORSDOF 0
ENDMDL
