MODEL 1
REMARK minimizedAffinity -3.1067369
REMARK minimizedRMSD -1
REMARK  0 active torsions:
REMARK  status: ('A' for Active; 'I' for Inactive)
ROOT
ATOM      1  O1  BZF d   1       4.111  -5.446  -5.993  0.00  0.00    -0.204 OA
ATOM      2  C2  BZF d   1       2.758  -5.725  -5.973  0.00  0.00     0.174 A 
ATOM      3  C3  BZF d   1       2.333  -5.943  -4.711  0.00  0.00    -0.012 A 
ATOM      4  C3A BZF d   1       3.474  -5.700  -3.883  0.00  0.00    -0.107 A 
ATOM      5  C4  BZF d   1       3.680  -5.738  -2.533  0.00  0.00     0.055 A 
ATOM      6  C5  BZF d   1       4.931  -5.520  -2.049  0.00  0.00    -0.016 A 
ATOM      7  C6  BZF d   1       5.998  -5.267  -2.885  0.00  0.00     0.022 A 
ATOM      8  C7  BZF d   1       5.843  -5.213  -4.230  0.00  0.00     0.029 A 
ATOM      9  C7A BZF d   1       4.573  -5.401  -4.720  0.00  0.00     0.058 A 
ENDROOT
TORSDOF 0
ENDMDL
