MODEL 1
REMARK minimizedAffinity -0.323726475
REMARK minimizedRMSD -1
REMARK  0 active torsions:
REMARK  status: ('A' for Active; 'I' for Inactive)
ROOT
ATOM      1  O1  BZF d   1       3.570  -5.267  -6.000  0.00  0.00    -0.204 OA
ATOM      2  C2  BZF d   1       2.295  -5.720  -5.724  0.00  0.00     0.174 A 
ATOM      3  C3  BZF d   1       2.160  -6.000  -4.411  0.00  0.00    -0.012 A 
ATOM      4  C3A BZF d   1       3.403  -5.616  -3.815  0.00  0.00    -0.107 A 
ATOM      5  C4  BZF d   1       3.876  -5.636  -2.534  0.00  0.00     0.055 A 
ATOM      6  C5  BZF d   1       5.160  -5.261  -2.298  0.00  0.00    -0.016 A 
ATOM      7  C6  BZF d   1       6.000  -4.865  -3.319  0.00  0.00     0.022 A 
ATOM      8  C7  BZF d   1       5.574  -4.823  -4.605  0.00  0.00     0.029 A 
ATOM      9  C7A BZF d   1       4.267  -5.171  -4.842  0.00  0.00     0.058 A 
ENDROOT
TORSDOF 0
ENDMDL
