MODEL 1
REMARK minimizedAffinity -4.09015846
REMARK minimizedRMSD -1
REMARK  0 active torsions:
REMARK  status: ('A' for Active; 'I' for Inactive)
ROOT
ATOM      1  O1  BZF d   1       4.367  -5.594  -5.785  0.00  0.00    -0.204 OA
ATOM      2  C2  BZF d   1       3.050  -5.999  -5.887  0.00  0.00     0.174 A 
ATOM      3  C3  BZF d   1       2.450  -5.981  -4.679  0.00  0.00    -0.012 A 
ATOM      4  C3A BZF d   1       3.428  -5.450  -3.780  0.00  0.00    -0.107 A 
ATOM      5  C4  BZF d   1       3.422  -5.175  -2.443  0.00  0.00     0.055 A 
ATOM      6  C5  BZF d   1       4.565  -4.731  -1.855  0.00  0.00    -0.016 A 
ATOM      7  C6  BZF d   1       5.730  -4.556  -2.573  0.00  0.00     0.022 A 
ATOM      8  C7  BZF d   1       5.782  -4.811  -3.903  0.00  0.00     0.029 A 
ATOM      9  C7A BZF d   1       4.621  -5.228  -4.506  0.00  0.00     0.058 A 
ENDROOT
TORSDOF 0
ENDMDL
