MODEL 1
REMARK minimizedAffinity -4.03814602
REMARK minimizedRMSD -1
REMARK  0 active torsions:
REMARK  status: ('A' for Active; 'I' for Inactive)
ROOT
ATOM      1  O1  BZF d   1       4.751  -5.706  -5.994  0.00  0.00    -0.204 OA
ATOM      2  C2  BZF d   1       5.993  -5.201  -5.660  0.00  0.00     0.174 A 
ATOM      3  C3  BZF d   1       6.000  -4.751  -4.388  0.00  0.00    -0.012 A 
ATOM      4  C3A BZF d   1       4.707  -5.075  -3.867  0.00  0.00    -0.107 A 
ATOM      5  C4  BZF d   1       4.114  -4.897  -2.650  0.00  0.00     0.055 A 
ATOM      6  C5  BZF d   1       2.814  -5.260  -2.489  0.00  0.00    -0.016 A 
ATOM      7  C6  BZF d   1       2.078  -5.799  -3.524  0.00  0.00     0.022 A 
ATOM      8  C7  BZF d   1       2.624  -5.999  -4.748  0.00  0.00     0.029 A 
ATOM      9  C7A BZF d   1       3.947  -5.664  -4.904  0.00  0.00     0.058 A 
ENDROOT
TORSDOF 0
ENDMDL
