MODEL 1
REMARK minimizedAffinity -3.43183327
REMARK minimizedRMSD -1
REMARK  0 active torsions:
REMARK  status: ('A' for Active; 'I' for Inactive)
ROOT
ATOM      1  O1  BZF d   1       4.067  -5.819  -5.967  0.00  0.00    -0.204 OA
ATOM      2  C2  BZF d   1       2.699  -5.999  -5.903  0.00  0.00     0.174 A 
ATOM      3  C3  BZF d   1       2.275  -6.000  -4.622  0.00  0.00    -0.012 A 
ATOM      4  C3A BZF d   1       3.440  -5.716  -3.841  0.00  0.00    -0.107 A 
ATOM      5  C4  BZF d   1       3.659  -5.569  -2.501  0.00  0.00     0.055 A 
ATOM      6  C5  BZF d   1       4.927  -5.368  -2.057  0.00  0.00    -0.016 A 
ATOM      7  C6  BZF d   1       5.999  -5.313  -2.923  0.00  0.00     0.022 A 
ATOM      8  C7  BZF d   1       5.831  -5.447  -4.261  0.00  0.00     0.029 A 
ATOM      9  C7A BZF d   1       4.547  -5.618  -4.716  0.00  0.00     0.058 A 
ENDROOT
TORSDOF 0
ENDMDL
