MODEL 1
REMARK minimizedAffinity -3.7677083
REMARK minimizedRMSD -1
REMARK  0 active torsions:
REMARK  status: ('A' for Active; 'I' for Inactive)
ROOT
ATOM      1  O1  BZF d   1       3.058   0.945   1.491  0.00  0.00    -0.204 OA
ATOM      2  C2  BZF d   1       2.075   1.651   0.824  0.00  0.00     0.174 A 
ATOM      3  C3  BZF d   1       2.177   2.971   1.079  0.00  0.00    -0.012 A 
ATOM      4  C3A BZF d   1       3.350   3.109   1.887  0.00  0.00    -0.107 A 
ATOM      5  C4  BZF d   1       3.984   4.181   2.446  0.00  0.00     0.055 A 
ATOM      6  C5  BZF d   1       5.066   3.968   3.240  0.00  0.00    -0.016 A 
ATOM      7  C6  BZF d   1       5.537   2.697   3.500  0.00  0.00     0.022 A 
ATOM      8  C7  BZF d   1       4.945   1.603   2.964  0.00  0.00     0.029 A 
ATOM      9  C7A BZF d   1       3.871   1.817   2.134  0.00  0.00     0.058 A 
ENDROOT
TORSDOF 0
ENDMDL
