MODEL 1
REMARK minimizedAffinity -1.36476064
REMARK minimizedRMSD -1
REMARK  0 active torsions:
REMARK  status: ('A' for Active; 'I' for Inactive)
ROOT
ATOM      1  O1  BZF d   1       2.273  -5.936  -2.430  0.00  0.00    -0.204 OA
ATOM      2  C2  BZF d   1       3.306  -5.940  -1.511  0.00  0.00     0.174 A 
ATOM      3  C3  BZF d   1       4.500  -6.000  -2.135  0.00  0.00    -0.012 A 
ATOM      4  C3A BZF d   1       4.199  -5.942  -3.532  0.00  0.00    -0.107 A 
ATOM      5  C4  BZF d   1       4.969  -5.945  -4.660  0.00  0.00     0.055 A 
ATOM      6  C5  BZF d   1       4.361  -5.952  -5.875  0.00  0.00    -0.016 A 
ATOM      7  C6  BZF d   1       2.987  -5.960  -6.000  0.00  0.00     0.022 A 
ATOM      8  C7  BZF d   1       2.181  -5.952  -4.910  0.00  0.00     0.029 A 
ATOM      9  C7A BZF d   1       2.793  -5.912  -3.681  0.00  0.00     0.058 A 
ENDROOT
TORSDOF 0
ENDMDL
