MODEL 1
REMARK minimizedAffinity -0.841017962
REMARK minimizedRMSD -1
REMARK  0 active torsions:
REMARK  status: ('A' for Active; 'I' for Inactive)
ROOT
ATOM      1  O1  BZF d   1       2.881   1.310   2.006  0.00  0.00    -0.204 OA
ATOM      2  C2  BZF d   1       1.724   2.032   1.789  0.00  0.00     0.174 A 
ATOM      3  C3  BZF d   1       1.931   3.346   2.011  0.00  0.00    -0.012 A 
ATOM      4  C3A BZF d   1       3.327   3.464   2.302  0.00  0.00    -0.107 A 
ATOM      5  C4  BZF d   1       4.140   4.522   2.592  0.00  0.00     0.055 A 
ATOM      6  C5  BZF d   1       5.443   4.289   2.898  0.00  0.00    -0.016 A 
ATOM      7  C6  BZF d   1       5.965   3.012   2.927  0.00  0.00     0.022 A 
ATOM      8  C7  BZF d   1       5.199   1.931   2.641  0.00  0.00     0.029 A 
ATOM      9  C7A BZF d   1       3.890   2.166   2.300  0.00  0.00     0.058 A 
ENDROOT
TORSDOF 0
ENDMDL
