MODEL 1
REMARK minimizedAffinity -3.96482348
REMARK minimizedRMSD -1
REMARK  0 active torsions:
REMARK  status: ('A' for Active; 'I' for Inactive)
ROOT
ATOM      1  O1  BZF d   1       3.960  -5.958  -5.731  0.00  0.00    -0.204 OA
ATOM      2  C2  BZF d   1       5.323  -5.953  -5.953  0.00  0.00     0.174 A 
ATOM      3  C3  BZF d   1       5.999  -5.910  -4.787  0.00  0.00    -0.012 A 
ATOM      4  C3A BZF d   1       4.996  -5.979  -3.769  0.00  0.00    -0.107 A 
ATOM      5  C4  BZF d   1       5.043  -5.994  -2.404  0.00  0.00     0.055 A 
ATOM      6  C5  BZF d   1       3.879  -5.994  -1.703  0.00  0.00    -0.016 A 
ATOM      7  C6  BZF d   1       2.652  -5.974  -2.333  0.00  0.00     0.022 A 
ATOM      8  C7  BZF d   1       2.554  -5.965  -3.685  0.00  0.00     0.029 A 
ATOM      9  C7A BZF d   1       3.729  -5.998  -4.396  0.00  0.00     0.058 A 
ENDROOT
TORSDOF 0
ENDMDL
