MODEL 1
REMARK minimizedAffinity -3.20369983
REMARK minimizedRMSD -1
REMARK  0 active torsions:
REMARK  status: ('A' for Active; 'I' for Inactive)
ROOT
ATOM      1  O1  BZF d   1       4.522  -4.491  -2.251  0.00  0.00    -0.204 OA
ATOM      2  C2  BZF d   1       3.187  -4.738  -1.995  0.00  0.00     0.174 A 
ATOM      3  C3  BZF d   1       2.587  -5.288  -3.071  0.00  0.00    -0.012 A 
ATOM      4  C3A BZF d   1       3.633  -5.476  -4.029  0.00  0.00    -0.107 A 
ATOM      5  C4  BZF d   1       3.667  -5.996  -5.291  0.00  0.00     0.055 A 
ATOM      6  C5  BZF d   1       4.834  -5.967  -5.986  0.00  0.00    -0.016 A 
ATOM      7  C6  BZF d   1       5.983  -5.422  -5.453  0.00  0.00     0.022 A 
ATOM      8  C7  BZF d   1       6.000  -4.898  -4.203  0.00  0.00     0.029 A 
ATOM      9  C7A BZF d   1       4.830  -4.956  -3.486  0.00  0.00     0.058 A 
ENDROOT
TORSDOF 0
ENDMDL
