MODEL 1
REMARK minimizedAffinity -3.46142507
REMARK minimizedRMSD -1
REMARK  0 active torsions:
REMARK  status: ('A' for Active; 'I' for Inactive)
ROOT
ATOM      1  O1  BZF d   1       4.159  -4.502  -6.000  0.00  0.00    -0.204 OA
ATOM      2  C2  BZF d   1       5.493  -4.148  -5.942  0.00  0.00     0.174 A 
ATOM      3  C3  BZF d   1       6.000  -4.393  -4.717  0.00  0.00    -0.012 A 
ATOM      4  C3A BZF d   1       4.940  -5.019  -3.989  0.00  0.00    -0.107 A 
ATOM      5  C4  BZF d   1       4.835  -5.512  -2.719  0.00  0.00     0.055 A 
ATOM      6  C5  BZF d   1       3.638  -5.994  -2.294  0.00  0.00    -0.016 A 
ATOM      7  C6  BZF d   1       2.524  -5.994  -3.109  0.00  0.00     0.022 A 
ATOM      8  C7  BZF d   1       2.580  -5.520  -4.377  0.00  0.00     0.029 A 
ATOM      9  C7A BZF d   1       3.797  -5.063  -4.821  0.00  0.00     0.058 A 
ENDROOT
TORSDOF 0
ENDMDL
