MODEL 1
REMARK minimizedAffinity -3.15024209
REMARK minimizedRMSD -1
REMARK  0 active torsions:
REMARK  status: ('A' for Active; 'I' for Inactive)
ROOT
ATOM      1  O1  BZF d   1       5.999  -5.086  -4.618  0.00  0.00    -0.204 OA
ATOM      2  C2  BZF d   1       5.728  -5.525  -5.900  0.00  0.00     0.174 A 
ATOM      3  C3  BZF d   1       4.468  -5.999  -5.987  0.00  0.00    -0.012 A 
ATOM      4  C3A BZF d   1       3.887  -5.761  -4.701  0.00  0.00    -0.107 A 
ATOM      5  C4  BZF d   1       2.651  -5.998  -4.171  0.00  0.00     0.055 A 
ATOM      6  C5  BZF d   1       2.429  -5.714  -2.861  0.00  0.00    -0.016 A 
ATOM      7  C6  BZF d   1       3.420  -5.199  -2.051  0.00  0.00     0.022 A 
ATOM      8  C7  BZF d   1       4.660  -4.942  -2.533  0.00  0.00     0.029 A 
ATOM      9  C7A BZF d   1       4.879  -5.197  -3.865  0.00  0.00     0.058 A 
ENDROOT
TORSDOF 0
ENDMDL
