MODEL 1
REMARK minimizedAffinity -4.00503731
REMARK minimizedRMSD -1
REMARK  0 active torsions:
REMARK  status: ('A' for Active; 'I' for Inactive)
ROOT
ATOM      1  O1  BZF d   1       5.953  -4.902  -4.791  0.00  0.00    -0.204 OA
ATOM      2  C2  BZF d   1       5.660  -5.504  -6.000  0.00  0.00     0.174 A 
ATOM      3  C3  BZF d   1       4.405  -5.996  -5.997  0.00  0.00    -0.012 A 
ATOM      4  C3A BZF d   1       3.848  -5.602  -4.739  0.00  0.00    -0.107 A 
ATOM      5  C4  BZF d   1       2.626  -5.780  -4.156  0.00  0.00     0.055 A 
ATOM      6  C5  BZF d   1       2.428  -5.334  -2.888  0.00  0.00    -0.016 A 
ATOM      7  C6  BZF d   1       3.430  -4.710  -2.173  0.00  0.00     0.022 A 
ATOM      8  C7  BZF d   1       4.656  -4.506  -2.712  0.00  0.00     0.029 A 
ATOM      9  C7A BZF d   1       4.850  -4.926  -4.005  0.00  0.00     0.058 A 
ENDROOT
TORSDOF 0
ENDMDL
