MODEL 1
REMARK minimizedAffinity -1.66603661
REMARK minimizedRMSD -1
REMARK  0 active torsions:
REMARK  status: ('A' for Active; 'I' for Inactive)
ROOT
ATOM      1  C   UNL d   1      -0.874   0.507   0.292  0.00  0.00     0.172 C 
ATOM      2  N   UNL d   1       0.410   0.030  -0.167  0.00  0.00    -0.070 N 
ATOM      3  C1  UNL d   1       0.670  -1.226  -0.646  0.00  0.00    -0.004 A 
ATOM      4  C2  UNL d   1       2.006  -1.283  -0.978  0.00  0.00    -0.047 A 
ATOM      5  C3  UNL d   1       2.569  -0.017  -0.687  0.00  0.00    -0.047 A 
ATOM      6  C4  UNL d   1       1.558   0.776  -0.186  0.00  0.00    -0.004 A 
ENDROOT
TORSDOF 0
ENDMDL
