MODEL 1
REMARK minimizedAffinity -3.49845171
REMARK minimizedRMSD -1
REMARK  0 active torsions:
REMARK  status: ('A' for Active; 'I' for Inactive)
ROOT
ATOM      1  C   UNL d   1      -0.821   0.477   0.346  0.00  0.00     0.172 C 
ATOM      2  N   UNL d   1       0.389  -0.161  -0.118  0.00  0.00    -0.070 N 
ATOM      3  C1  UNL d   1       0.646  -1.505  -0.085  0.00  0.00    -0.004 A 
ATOM      4  C2  UNL d   1       1.901  -1.709  -0.616  0.00  0.00    -0.047 A 
ATOM      5  C3  UNL d   1       2.417  -0.442  -0.980  0.00  0.00    -0.047 A 
ATOM      6  C4  UNL d   1       1.461   0.498  -0.660  0.00  0.00    -0.004 A 
ENDROOT
TORSDOF 0
ENDMDL
