MODEL 1
REMARK minimizedAffinity -2.87022471
REMARK minimizedRMSD -1
REMARK  0 active torsions:
REMARK  status: ('A' for Active; 'I' for Inactive)
ROOT
ATOM      1  C   UNL d   1       0.128   1.643  -0.592  0.00  0.00     0.172 C 
ATOM      2  N   UNL d   1       1.260   0.750  -0.680  0.00  0.00    -0.070 N 
ATOM      3  C1  UNL d   1       2.575   1.118  -0.586  0.00  0.00    -0.004 A 
ATOM      4  C2  UNL d   1       3.342  -0.020  -0.720  0.00  0.00    -0.047 A 
ATOM      5  C3  UNL d   1       2.456  -1.108  -0.902  0.00  0.00    -0.047 A 
ATOM      6  C4  UNL d   1       1.174  -0.603  -0.873  0.00  0.00    -0.004 A 
ENDROOT
TORSDOF 0
ENDMDL
