MODEL 1
REMARK minimizedAffinity -3.21677637
REMARK minimizedRMSD -1
REMARK  0 active torsions:
REMARK  status: ('A' for Active; 'I' for Inactive)
ROOT
ATOM      1  C   UNL d   1      -1.056   0.535  -0.022  0.00  0.00     0.172 C 
ATOM      2  N   UNL d   1       0.179  -0.188  -0.216  0.00  0.00    -0.070 N 
ATOM      3  C1  UNL d   1       1.425   0.372  -0.314  0.00  0.00    -0.004 A 
ATOM      4  C2  UNL d   1       2.333  -0.648  -0.493  0.00  0.00    -0.047 A 
ATOM      5  C3  UNL d   1       1.609  -1.864  -0.504  0.00  0.00    -0.047 A 
ATOM      6  C4  UNL d   1       0.277  -1.549  -0.331  0.00  0.00    -0.004 A 
ENDROOT
TORSDOF 0
ENDMDL
