MODEL 1
REMARK minimizedAffinity -3.79923391
REMARK minimizedRMSD -1
REMARK  0 active torsions:
REMARK  status: ('A' for Active; 'I' for Inactive)
ROOT
ATOM      1  C   UNL d   1       2.865  -0.729  -1.040  0.00  0.00     0.172 C 
ATOM      2  N   UNL d   1       1.585  -0.275  -0.551  0.00  0.00    -0.070 N 
ATOM      3  C1  UNL d   1       0.617  -1.066   0.007  0.00  0.00    -0.004 A 
ATOM      4  C2  UNL d   1      -0.448  -0.258   0.343  0.00  0.00    -0.047 A 
ATOM      5  C3  UNL d   1      -0.108   1.065  -0.027  0.00  0.00    -0.047 A 
ATOM      6  C4  UNL d   1       1.155   1.026  -0.578  0.00  0.00    -0.004 A 
ENDROOT
TORSDOF 0
ENDMDL
