MODEL 1
REMARK minimizedAffinity -2.86955929
REMARK minimizedRMSD -1
REMARK  0 active torsions:
REMARK  status: ('A' for Active; 'I' for Inactive)
ROOT
ATOM      1  C   UNL d   1      -0.937   0.332   0.737  0.00  0.00     0.172 C 
ATOM      2  N   UNL d   1       0.183  -0.086  -0.074  0.00  0.00    -0.070 N 
ATOM      3  C1  UNL d   1       0.839  -1.284   0.027  0.00  0.00    -0.004 A 
ATOM      4  C2  UNL d   1       1.841  -1.297  -0.919  0.00  0.00    -0.047 A 
ATOM      5  C3  UNL d   1       1.786  -0.063  -1.611  0.00  0.00    -0.047 A 
ATOM      6  C4  UNL d   1       0.751   0.667  -1.068  0.00  0.00    -0.004 A 
ENDROOT
TORSDOF 0
ENDMDL
