MODEL 1
REMARK minimizedAffinity -3.27045989
REMARK minimizedRMSD -1
REMARK  0 active torsions:
REMARK  status: ('A' for Active; 'I' for Inactive)
ROOT
ATOM      1  C   UNL d   1      -0.773   0.431   0.461  0.00  0.00     0.172 C 
ATOM      2  N   UNL d   1       0.537  -0.054   0.094  0.00  0.00    -0.070 N 
ATOM      3  C1  UNL d   1       0.930  -1.366   0.089  0.00  0.00    -0.004 A 
ATOM      4  C2  UNL d   1       2.245  -1.411  -0.319  0.00  0.00    -0.047 A 
ATOM      5  C3  UNL d   1       2.657  -0.080  -0.568  0.00  0.00    -0.047 A 
ATOM      6  C4  UNL d   1       1.580   0.739  -0.304  0.00  0.00    -0.004 A 
ENDROOT
TORSDOF 0
ENDMDL
