MODEL 1
REMARK minimizedAffinity -2.67950702
REMARK minimizedRMSD -1
REMARK  0 active torsions:
REMARK  status: ('A' for Active; 'I' for Inactive)
ROOT
ATOM      1  C   UNL d   1       2.374  -1.390  -1.280  0.00  0.00     0.172 C 
ATOM      2  N   UNL d   1       1.257  -0.683  -0.698  0.00  0.00    -0.070 N 
ATOM      3  C1  UNL d   1       0.116  -1.258  -0.207  0.00  0.00    -0.004 A 
ATOM      4  C2  UNL d   1      -0.699  -0.249   0.258  0.00  0.00    -0.047 A 
ATOM      5  C3  UNL d   1      -0.025   0.975   0.037  0.00  0.00    -0.047 A 
ATOM      6  C4  UNL d   1       1.183   0.678  -0.556  0.00  0.00    -0.004 A 
ENDROOT
TORSDOF 0
ENDMDL
