MODEL 1
REMARK minimizedAffinity -3.78647637
REMARK minimizedRMSD -1
REMARK  0 active torsions:
REMARK  status: ('A' for Active; 'I' for Inactive)
ROOT
ATOM      1  C   UNL d   1      -0.607   0.181   0.883  0.00  0.00     0.172 C 
ATOM      2  N   UNL d   1       0.488  -0.275   0.059  0.00  0.00    -0.070 N 
ATOM      3  C1  UNL d   1       1.436   0.524  -0.522  0.00  0.00    -0.004 A 
ATOM      4  C2  UNL d   1       2.301  -0.289  -1.222  0.00  0.00    -0.047 A 
ATOM      5  C3  UNL d   1       1.858  -1.622  -1.056  0.00  0.00    -0.047 A 
ATOM      6  C4  UNL d   1       0.733  -1.585  -0.258  0.00  0.00    -0.004 A 
ENDROOT
TORSDOF 0
ENDMDL
