MODEL 1
REMARK minimizedAffinity -0.467290014
REMARK minimizedRMSD -1
REMARK  0 active torsions:
REMARK  status: ('A' for Active; 'I' for Inactive)
ROOT
ATOM      1  C   UNL d   1       2.252  -1.568  -1.370  0.00  0.00     0.172 C 
ATOM      2  N   UNL d   1       1.135  -0.954  -0.691  0.00  0.00    -0.070 N 
ATOM      3  C1  UNL d   1       0.251  -1.596   0.134  0.00  0.00    -0.004 A 
ATOM      4  C2  UNL d   1      -0.662  -0.665   0.580  0.00  0.00    -0.047 A 
ATOM      5  C3  UNL d   1      -0.315   0.579   0.002  0.00  0.00    -0.047 A 
ATOM      6  C4  UNL d   1       0.801   0.372  -0.780  0.00  0.00    -0.004 A 
ENDROOT
TORSDOF 0
ENDMDL
