MODEL 1
REMARK minimizedAffinity -4.05560493
REMARK minimizedRMSD -1
REMARK  0 active torsions:
REMARK  status: ('A' for Active; 'I' for Inactive)
ROOT
ATOM      1  C   UNL d   1      -0.365  -1.838   0.135  0.00  0.00     0.172 C 
ATOM      2  N   UNL d   1       0.655  -0.928  -0.331  0.00  0.00    -0.070 N 
ATOM      3  C1  UNL d   1       1.866  -1.290  -0.859  0.00  0.00    -0.004 A 
ATOM      4  C2  UNL d   1       2.547  -0.136  -1.181  0.00  0.00    -0.047 A 
ATOM      5  C3  UNL d   1       1.716   0.957  -0.835  0.00  0.00    -0.047 A 
ATOM      6  C4  UNL d   1       0.551   0.437  -0.311  0.00  0.00    -0.004 A 
ENDROOT
TORSDOF 0
ENDMDL
