MODEL 1
REMARK minimizedAffinity -3.26474738
REMARK minimizedRMSD -1
REMARK  0 active torsions:
REMARK  status: ('A' for Active; 'I' for Inactive)
ROOT
ATOM      1  C   UNL d   1      -0.426  -0.067   0.382  0.00  0.00     0.172 C 
ATOM      2  N   UNL d   1       0.811  -0.195  -0.352  0.00  0.00    -0.070 N 
ATOM      3  C1  UNL d   1       1.932   0.569  -0.166  0.00  0.00    -0.004 A 
ATOM      4  C2  UNL d   1       2.890   0.136  -1.057  0.00  0.00    -0.047 A 
ATOM      5  C3  UNL d   1       2.326  -0.925  -1.803  0.00  0.00    -0.047 A 
ATOM      6  C4  UNL d   1       1.038  -1.109  -1.346  0.00  0.00    -0.004 A 
ENDROOT
TORSDOF 0
ENDMDL
