MODEL 1
REMARK minimizedAffinity -3.68535089
REMARK minimizedRMSD -1
REMARK  0 active torsions:
REMARK  status: ('A' for Active; 'I' for Inactive)
ROOT
ATOM      1  C   UNL d   1      -1.137   0.734  -0.016  0.00  0.00     0.172 C 
ATOM      2  N   UNL d   1       0.075   0.013  -0.330  0.00  0.00    -0.070 N 
ATOM      3  C1  UNL d   1       0.204  -1.349  -0.372  0.00  0.00    -0.004 A 
ATOM      4  C2  UNL d   1       1.509  -1.639  -0.707  0.00  0.00    -0.047 A 
ATOM      5  C3  UNL d   1       2.188  -0.408  -0.871  0.00  0.00    -0.047 A 
ATOM      6  C4  UNL d   1       1.276   0.599  -0.632  0.00  0.00    -0.004 A 
ENDROOT
TORSDOF 0
ENDMDL
