MODEL 1
REMARK minimizedAffinity -2.84180999
REMARK minimizedRMSD -1
REMARK  0 active torsions:
REMARK  status: ('A' for Active; 'I' for Inactive)
ROOT
ATOM      1  C   UNL d   1       2.615  -0.914  -0.733  0.00  0.00     0.172 C 
ATOM      2  N   UNL d   1       1.213  -0.755  -0.427  0.00  0.00    -0.070 N 
ATOM      3  C1  UNL d   1       0.435   0.316  -0.780  0.00  0.00    -0.004 A 
ATOM      4  C2  UNL d   1      -0.838   0.088  -0.305  0.00  0.00    -0.047 A 
ATOM      5  C3  UNL d   1      -0.825  -1.162   0.359  0.00  0.00    -0.047 A 
ATOM      6  C4  UNL d   1       0.457  -1.662   0.268  0.00  0.00    -0.004 A 
ENDROOT
TORSDOF 0
ENDMDL
