MODEL 1
REMARK minimizedAffinity -3.51651287
REMARK minimizedRMSD -1
REMARK  0 active torsions:
REMARK  status: ('A' for Active; 'I' for Inactive)
ROOT
ATOM      1  C   UNL d   1      -1.324  -0.045  -0.174  0.00  0.00     0.172 C 
ATOM      2  N   UNL d   1       0.116  -0.150  -0.168  0.00  0.00    -0.070 N 
ATOM      3  C1  UNL d   1       0.833  -1.278   0.131  0.00  0.00    -0.004 A 
ATOM      4  C2  UNL d   1       2.172  -0.968   0.024  0.00  0.00    -0.047 A 
ATOM      5  C3  UNL d   1       2.262   0.393  -0.352  0.00  0.00    -0.047 A 
ATOM      6  C4  UNL d   1       0.975   0.875  -0.464  0.00  0.00    -0.004 A 
ENDROOT
TORSDOF 0
ENDMDL
