MODEL 1
REMARK minimizedAffinity -3.32172513
REMARK minimizedRMSD -1
REMARK  0 active torsions:
REMARK  status: ('A' for Active; 'I' for Inactive)
ROOT
ATOM      1  C   UNL d   1      -0.099  -1.002   0.220  0.00  0.00     0.172 C 
ATOM      2  N   UNL d   1       1.130  -0.638  -0.445  0.00  0.00    -0.070 N 
ATOM      3  C1  UNL d   1       1.762  -1.373  -1.412  0.00  0.00    -0.004 A 
ATOM      4  C2  UNL d   1       2.896  -0.687  -1.789  0.00  0.00    -0.047 A 
ATOM      5  C3  UNL d   1       2.948   0.501  -1.022  0.00  0.00    -0.047 A 
ATOM      6  C4  UNL d   1       1.842   0.505  -0.198  0.00  0.00    -0.004 A 
ENDROOT
TORSDOF 0
ENDMDL
