MODEL 1
REMARK minimizedAffinity -3.1974535
REMARK minimizedRMSD -1
REMARK  0 active torsions:
REMARK  status: ('A' for Active; 'I' for Inactive)
ROOT
ATOM      1  C   UNL d   1      -0.135   0.978  -0.059  0.00  0.00     0.172 C 
ATOM      2  N   UNL d   1      -1.305   0.818   0.772  0.00  0.00    -0.070 N 
ATOM      3  C1  UNL d   1      -1.572   1.518   1.917  0.00  0.00    -0.004 A 
ATOM      4  C2  UNL d   1      -2.779   1.074   2.412  0.00  0.00    -0.047 A 
ATOM      5  C3  UNL d   1      -3.254   0.072   1.533  0.00  0.00    -0.047 A 
ATOM      6  C4  UNL d   1      -2.322  -0.067   0.527  0.00  0.00    -0.004 A 
ENDROOT
TORSDOF 0
ENDMDL
