MODEL 1
REMARK minimizedAffinity 0.284932226
REMARK minimizedRMSD -1
REMARK  2 active torsions:
REMARK  status: ('A' for Active; 'I' for Inactive)
REMARK    1  A    between atoms: C1_2  and  C2_3 
REMARK    2  A    between atoms: C2_3  and  C3_4 
ROOT
ATOM      1  C3  UNL d   1      -0.333   0.456   2.077  0.00  0.00    -0.075 A 
ATOM      2  C4  UNL d   1      -0.495  -0.014   0.765  0.00  0.00     0.002 A 
ATOM      3  C5  UNL d   1       0.565  -0.627   0.097  0.00  0.00     0.002 A 
ATOM      4  C6  UNL d   1       1.801  -0.768   0.725  0.00  0.00    -0.004 A 
ATOM      5  C7  UNL d   1       1.977  -0.290   2.022  0.00  0.00     0.002 A 
ATOM      6  C8  UNL d   1       0.917   0.320   2.695  0.00  0.00     0.002 A 
ENDROOT
BRANCH   1   7
ATOM      7  C2  UNL d   1      -1.485   1.094   2.816  0.00  0.00     0.056 C 
BRANCH   7   8
ATOM      8  C1  UNL d   1      -2.043   0.238   3.959  0.00  0.00     0.007 C 
ATOM      9  C   UNL d   1      -2.813  -0.982   3.473  0.00  0.00     0.009 C 
ENDBRANCH   7   8
ENDBRANCH   1   7
TORSDOF 2
ENDMDL
