MODEL 1
REMARK minimizedAffinity 5.38710976
REMARK minimizedRMSD -1
REMARK  2 active torsions:
REMARK  status: ('A' for Active; 'I' for Inactive)
REMARK    1  A    between atoms: C1_2  and  C2_3 
REMARK    2  A    between atoms: C2_3  and  C3_4 
ROOT
ATOM      1  C3  UNL d   1      -5.774   3.326  -0.580  0.00  0.00    -0.075 A 
ATOM      2  C4  UNL d   1      -5.757   4.389  -1.494  0.00  0.00     0.002 A 
ATOM      3  C5  UNL d   1      -5.843   5.709  -1.049  0.00  0.00     0.002 A 
ATOM      4  C6  UNL d   1      -5.957   5.981   0.313  0.00  0.00    -0.004 A 
ATOM      5  C7  UNL d   1      -5.992   4.933   1.229  0.00  0.00     0.002 A 
ATOM      6  C8  UNL d   1      -5.902   3.612   0.786  0.00  0.00     0.002 A 
ENDROOT
BRANCH   1   7
ATOM      7  C2  UNL d   1      -5.652   1.898  -1.053  0.00  0.00     0.056 C 
BRANCH   7   8
ATOM      8  C1  UNL d   1      -4.207   1.419  -1.224  0.00  0.00     0.007 C 
ATOM      9  C   UNL d   1      -3.480   1.218   0.099  0.00  0.00     0.009 C 
ENDBRANCH   7   8
ENDBRANCH   1   7
TORSDOF 2
ENDMDL
