MODEL 1
REMARK minimizedAffinity 1.81975913
REMARK minimizedRMSD -1
REMARK  2 active torsions:
REMARK  status: ('A' for Active; 'I' for Inactive)
REMARK    1  A    between atoms: C1_2  and  C2_3 
REMARK    2  A    between atoms: C2_3  and  C3_4 
ROOT
ATOM      1  C3  UNL d   1      -1.491   0.396   1.584  0.00  0.00    -0.075 A 
ATOM      2  C4  UNL d   1      -2.281  -0.467   0.810  0.00  0.00     0.002 A 
ATOM      3  C5  UNL d   1      -3.353   0.030   0.067  0.00  0.00     0.002 A 
ATOM      4  C6  UNL d   1      -3.653   1.390   0.096  0.00  0.00    -0.004 A 
ATOM      5  C7  UNL d   1      -2.885   2.253   0.874  0.00  0.00     0.002 A 
ATOM      6  C8  UNL d   1      -1.810   1.760   1.615  0.00  0.00     0.002 A 
ENDROOT
BRANCH   1   7
ATOM      7  C2  UNL d   1      -0.312  -0.131   2.367  0.00  0.00     0.056 C 
BRANCH   7   8
ATOM      8  C1  UNL d   1       1.047   0.342   1.841  0.00  0.00     0.007 C 
ATOM      9  C   UNL d   1       1.858  -0.770   1.188  0.00  0.00     0.009 C 
ENDBRANCH   7   8
ENDBRANCH   1   7
TORSDOF 2
ENDMDL
