MODEL 1
REMARK minimizedAffinity 3.54337978
REMARK minimizedRMSD -1
REMARK  2 active torsions:
REMARK  status: ('A' for Active; 'I' for Inactive)
REMARK    1  A    between atoms: C1_2  and  C2_3 
REMARK    2  A    between atoms: C2_3  and  C3_4 
ROOT
ATOM      1  C3  UNL d   1       0.357   0.026   2.394  0.00  0.00    -0.075 A 
ATOM      2  C4  UNL d   1      -0.416  -0.414   3.478  0.00  0.00     0.002 A 
ATOM      3  C5  UNL d   1      -1.807  -0.314   3.443  0.00  0.00     0.002 A 
ATOM      4  C6  UNL d   1      -2.441   0.234   2.331  0.00  0.00    -0.004 A 
ATOM      5  C7  UNL d   1      -1.682   0.690   1.255  0.00  0.00     0.002 A 
ATOM      6  C8  UNL d   1      -0.290   0.587   1.286  0.00  0.00     0.002 A 
ENDROOT
BRANCH   1   7
ATOM      7  C2  UNL d   1       1.861  -0.106   2.414  0.00  0.00     0.056 C 
BRANCH   7   8
ATOM      8  C1  UNL d   1       2.457  -0.649   1.110  0.00  0.00     0.007 C 
ATOM      9  C   UNL d   1       3.910  -1.083   1.249  0.00  0.00     0.009 C 
ENDBRANCH   7   8
ENDBRANCH   1   7
TORSDOF 2
ENDMDL
