MODEL 1
REMARK minimizedAffinity 2.71013141
REMARK minimizedRMSD -1
REMARK  2 active torsions:
REMARK  status: ('A' for Active; 'I' for Inactive)
REMARK    1  A    between atoms: C1_2  and  C2_3 
REMARK    2  A    between atoms: C2_3  and  C3_4 
ROOT
ATOM      1  C3  UNL d   1       1.430   0.253   2.338  0.00  0.00    -0.075 A 
ATOM      2  C4  UNL d   1       1.254   0.312   0.948  0.00  0.00     0.002 A 
ATOM      3  C5  UNL d   1       2.227  -0.200   0.089  0.00  0.00     0.002 A 
ATOM      4  C6  UNL d   1       3.390  -0.766   0.607  0.00  0.00    -0.004 A 
ATOM      5  C7  UNL d   1       3.583  -0.814   1.986  0.00  0.00     0.002 A 
ATOM      6  C8  UNL d   1       2.609  -0.307   2.848  0.00  0.00     0.002 A 
ENDROOT
BRANCH   1   7
ATOM      7  C2  UNL d   1       0.367   0.779   3.274  0.00  0.00     0.056 C 
BRANCH   7   8
ATOM      8  C1  UNL d   1      -1.051   0.732   2.696  0.00  0.00     0.007 C 
ATOM      9  C   UNL d   1      -1.644   2.112   2.446  0.00  0.00     0.009 C 
ENDBRANCH   7   8
ENDBRANCH   1   7
TORSDOF 2
ENDMDL
