MODEL 1
REMARK minimizedAffinity 9.66408157
REMARK minimizedRMSD -1
REMARK  2 active torsions:
REMARK  status: ('A' for Active; 'I' for Inactive)
REMARK    1  A    between atoms: C1_2  and  C2_3 
REMARK    2  A    between atoms: C2_3  and  C3_4 
ROOT
ATOM      1  C3  UNL d   1      -2.786   1.035   1.074  0.00  0.00    -0.075 A 
ATOM      2  C4  UNL d   1      -2.057   1.632   2.113  0.00  0.00     0.002 A 
ATOM      3  C5  UNL d   1      -1.074   0.912   2.793  0.00  0.00     0.002 A 
ATOM      4  C6  UNL d   1      -0.814  -0.413   2.450  0.00  0.00    -0.004 A 
ATOM      5  C7  UNL d   1      -1.544  -1.021   1.431  0.00  0.00     0.002 A 
ATOM      6  C8  UNL d   1      -2.525  -0.302   0.746  0.00  0.00     0.002 A 
ENDROOT
BRANCH   1   7
ATOM      7  C2  UNL d   1      -3.831   1.817   0.315  0.00  0.00     0.056 C 
BRANCH   7   8
ATOM      8  C1  UNL d   1      -4.509   1.026  -0.808  0.00  0.00     0.007 C 
ATOM      9  C   UNL d   1      -5.872   1.583  -1.198  0.00  0.00     0.009 C 
ENDBRANCH   7   8
ENDBRANCH   1   7
TORSDOF 2
ENDMDL
