MODEL 1
REMARK minimizedAffinity 5.86713409
REMARK minimizedRMSD -1
REMARK  0 active torsions:
REMARK  status: ('A' for Active; 'I' for Inactive)
ROOT
ATOM      1  C   UNL d   1      -4.153   2.374   5.956  0.00  0.00     0.124 A 
ATOM      2  C1  UNL d   1      -4.565   3.700   5.944  0.00  0.00     0.062 A 
ATOM      3  C2  UNL d   1      -3.624   4.725   5.903  0.00  0.00     0.162 A 
ATOM      4  C3  UNL d   1      -2.261   4.429   5.873  0.00  0.00    -0.034 A 
ATOM      5  C4  UNL d   1      -1.855   3.093   5.886  0.00  0.00     0.162 A 
ATOM      6  C5  UNL d   1      -2.799   2.072   5.927  0.00  0.00     0.062 A 
ATOM      7  F   UNL d   1      -2.398   0.792   5.938  0.00  0.00    -0.097 F 
ATOM      8  F1  UNL d   1      -0.552   2.773   5.858  0.00  0.00    -0.096 F 
ATOM      9  I   UNL d   1      -0.852   5.959   5.813  0.00  0.00    -0.060 I 
ATOM     10  F2  UNL d   1      -4.051   5.996   5.893  0.00  0.00    -0.096 F 
ATOM     11  F3  UNL d   1      -5.873   3.994   5.973  0.00  0.00    -0.097 F 
ATOM     12  F4  UNL d   1      -5.060   1.390   5.996  0.00  0.00    -0.092 F 
ENDROOT
TORSDOF 0
ENDMDL
