MODEL 1
REMARK minimizedAffinity 18.2035923
REMARK minimizedRMSD -1
REMARK  0 active torsions:
REMARK  status: ('A' for Active; 'I' for Inactive)
ROOT
ATOM      1  C   UNL d   1      -0.017   4.673   3.437  0.00  0.00     0.124 A 
ATOM      2  C1  UNL d   1       0.426   5.344   4.568  0.00  0.00     0.062 A 
ATOM      3  C2  UNL d   1       1.778   5.340   4.900  0.00  0.00     0.162 A 
ATOM      4  C3  UNL d   1       2.697   4.662   4.099  0.00  0.00    -0.034 A 
ATOM      5  C4  UNL d   1       2.244   3.988   2.964  0.00  0.00     0.162 A 
ATOM      6  C5  UNL d   1       0.892   3.996   2.636  0.00  0.00     0.062 A 
ATOM      7  F   UNL d   1       0.466   3.346   1.543  0.00  0.00    -0.097 F 
ATOM      8  F1  UNL d   1       3.100   3.326   2.172  0.00  0.00    -0.096 F 
ATOM      9  I   UNL d   1       4.719   4.653   4.593  0.00  0.00    -0.060 I 
ATOM     10  F2  UNL d   1       2.177   5.997   5.999  0.00  0.00    -0.096 F 
ATOM     11  F3  UNL d   1      -0.450   5.999   5.343  0.00  0.00    -0.097 F 
ATOM     12  F4  UNL d   1      -1.318   4.678   3.120  0.00  0.00    -0.092 F 
ENDROOT
TORSDOF 0
ENDMDL
