MODEL 1
REMARK minimizedAffinity 4.2433238
REMARK minimizedRMSD -1
REMARK  0 active torsions:
REMARK  status: ('A' for Active; 'I' for Inactive)
ROOT
ATOM      1  C   UNL d   1       2.435   3.922   2.602  0.00  0.00     0.124 A 
ATOM      2  C1  UNL d   1       2.101   4.452   3.841  0.00  0.00     0.062 A 
ATOM      3  C2  UNL d   1       3.081   4.633   4.812  0.00  0.00     0.162 A 
ATOM      4  C3  UNL d   1       4.406   4.286   4.548  0.00  0.00    -0.034 A 
ATOM      5  C4  UNL d   1       4.734   3.753   3.300  0.00  0.00     0.162 A 
ATOM      6  C5  UNL d   1       3.751   3.573   2.333  0.00  0.00     0.062 A 
ATOM      7  F   UNL d   1       4.075   3.061   1.137  0.00  0.00    -0.097 F 
ATOM      8  F1  UNL d   1       5.998   3.408   3.013  0.00  0.00    -0.096 F 
ATOM      9  I   UNL d   1       5.875   4.556   5.997  0.00  0.00    -0.060 I 
ATOM     10  F2  UNL d   1       2.730   5.147   6.000  0.00  0.00    -0.096 F 
ATOM     11  F3  UNL d   1       0.830   4.789   4.104  0.00  0.00    -0.097 F 
ATOM     12  F4  UNL d   1       1.489   3.747   1.670  0.00  0.00    -0.092 F 
ENDROOT
TORSDOF 0
ENDMDL
