MODEL 1
REMARK minimizedAffinity 27.4443741
REMARK minimizedRMSD -1
REMARK  0 active torsions:
REMARK  status: ('A' for Active; 'I' for Inactive)
ROOT
ATOM      1  C   UNL d   1      -3.014   3.052   4.199  0.00  0.00     0.124 A 
ATOM      2  C1  UNL d   1      -3.004   4.127   5.078  0.00  0.00     0.062 A 
ATOM      3  C2  UNL d   1      -1.897   4.969   5.141  0.00  0.00     0.162 A 
ATOM      4  C3  UNL d   1      -0.791   4.741   4.323  0.00  0.00    -0.034 A 
ATOM      5  C4  UNL d   1      -0.808   3.658   3.442  0.00  0.00     0.162 A 
ATOM      6  C5  UNL d   1      -1.916   2.819   3.382  0.00  0.00     0.062 A 
ATOM      7  F   UNL d   1      -1.924   1.782   2.533  0.00  0.00    -0.097 F 
ATOM      8  F1  UNL d   1       0.238   3.410   2.641  0.00  0.00    -0.096 F 
ATOM      9  I   UNL d   1       0.865   5.998   4.414  0.00  0.00    -0.060 I 
ATOM     10  F2  UNL d   1      -1.915   5.999   6.000  0.00  0.00    -0.096 F 
ATOM     11  F3  UNL d   1      -4.062   4.354   5.869  0.00  0.00    -0.097 F 
ATOM     12  F4  UNL d   1      -4.079   2.243   4.141  0.00  0.00    -0.092 F 
ENDROOT
TORSDOF 0
ENDMDL
