MODEL 1
REMARK minimizedAffinity 25.6464443
REMARK minimizedRMSD -1
REMARK  0 active torsions:
REMARK  status: ('A' for Active; 'I' for Inactive)
ROOT
ATOM      1  C   UNL d   1       4.748   3.964   3.125  0.00  0.00     0.124 A 
ATOM      2  C1  UNL d   1       3.534   3.738   2.491  0.00  0.00     0.062 A 
ATOM      3  C2  UNL d   1       2.359   4.262   3.022  0.00  0.00     0.162 A 
ATOM      4  C3  UNL d   1       2.392   5.018   4.194  0.00  0.00    -0.034 A 
ATOM      5  C4  UNL d   1       3.616   5.240   4.826  0.00  0.00     0.162 A 
ATOM      6  C5  UNL d   1       4.788   4.715   4.292  0.00  0.00     0.062 A 
ATOM      7  F   UNL d   1       5.960   4.934   4.906  0.00  0.00    -0.097 F 
ATOM      8  F1  UNL d   1       3.684   5.963   5.954  0.00  0.00    -0.096 F 
ATOM      9  I   UNL d   1       0.637   5.803   4.991  0.00  0.00    -0.060 I 
ATOM     10  F2  UNL d   1       1.200   4.028   2.388  0.00  0.00    -0.096 F 
ATOM     11  F3  UNL d   1       3.493   3.013   1.365  0.00  0.00    -0.097 F 
ATOM     12  F4  UNL d   1       5.877   3.458   2.613  0.00  0.00    -0.092 F 
ENDROOT
TORSDOF 0
ENDMDL
