MODEL 1
REMARK minimizedAffinity 13.5049295
REMARK minimizedRMSD -1
REMARK  0 active torsions:
REMARK  status: ('A' for Active; 'I' for Inactive)
ROOT
ATOM      1  C   UNL d   1      -0.622  -1.978   2.125  0.00  0.00     0.124 A 
ATOM      2  C1  UNL d   1      -0.467  -3.306   2.497  0.00  0.00     0.062 A 
ATOM      3  C2  UNL d   1       0.731  -3.968   2.245  0.00  0.00     0.162 A 
ATOM      4  C3  UNL d   1       1.785  -3.302   1.618  0.00  0.00    -0.034 A 
ATOM      5  C4  UNL d   1       1.621  -1.967   1.246  0.00  0.00     0.162 A 
ATOM      6  C5  UNL d   1       0.421  -1.310   1.500  0.00  0.00     0.062 A 
ATOM      7  F   UNL d   1       0.273  -0.027   1.140  0.00  0.00    -0.097 F 
ATOM      8  F1  UNL d   1       2.613  -1.297   0.642  0.00  0.00    -0.096 F 
ATOM      9  I   UNL d   1       3.578  -4.289   1.240  0.00  0.00    -0.060 I 
ATOM     10  F2  UNL d   1       0.854  -5.251   2.616  0.00  0.00    -0.096 F 
ATOM     11  F3  UNL d   1      -1.474  -3.954   3.100  0.00  0.00    -0.097 F 
ATOM     12  F4  UNL d   1      -1.777  -1.344   2.367  0.00  0.00    -0.092 F 
ENDROOT
TORSDOF 0
ENDMDL
