MODEL 1
REMARK minimizedAffinity 10.3964062
REMARK minimizedRMSD -1
REMARK  0 active torsions:
REMARK  status: ('A' for Active; 'I' for Inactive)
ROOT
ATOM      1  C   UNL d   1      -3.151   1.717  -2.548  0.00  0.00     0.124 A 
ATOM      2  C1  UNL d   1      -2.052   2.283  -1.917  0.00  0.00     0.062 A 
ATOM      3  C2  UNL d   1      -1.612   1.782  -0.695  0.00  0.00     0.162 A 
ATOM      4  C3  UNL d   1      -2.269   0.707  -0.097  0.00  0.00    -0.034 A 
ATOM      5  C4  UNL d   1      -3.375   0.144  -0.737  0.00  0.00     0.162 A 
ATOM      6  C5  UNL d   1      -3.811   0.648  -1.958  0.00  0.00     0.062 A 
ATOM      7  F   UNL d   1      -4.873   0.100  -2.566  0.00  0.00    -0.097 F 
ATOM      8  F1  UNL d   1      -4.030  -0.891  -0.190  0.00  0.00    -0.096 F 
ATOM      9  I   UNL d   1      -1.613  -0.045   1.729  0.00  0.00    -0.060 I 
ATOM     10  F2  UNL d   1      -0.547   2.348  -0.108  0.00  0.00    -0.096 F 
ATOM     11  F3  UNL d   1      -1.414   3.316  -2.484  0.00  0.00    -0.097 F 
ATOM     12  F4  UNL d   1      -3.574   2.202  -3.723  0.00  0.00    -0.092 F 
ENDROOT
TORSDOF 0
ENDMDL
