MODEL 1
REMARK minimizedAffinity 15.4806471
REMARK minimizedRMSD -1
REMARK  0 active torsions:
REMARK  status: ('A' for Active; 'I' for Inactive)
ROOT
ATOM      1  C   UNL d   1      -1.082   4.615   3.367  0.00  0.00     0.124 A 
ATOM      2  C1  UNL d   1      -0.695   5.302   4.509  0.00  0.00     0.062 A 
ATOM      3  C2  UNL d   1       0.643   5.326   4.891  0.00  0.00     0.162 A 
ATOM      4  C3  UNL d   1       1.605   4.661   4.130  0.00  0.00    -0.034 A 
ATOM      5  C4  UNL d   1       1.207   3.972   2.983  0.00  0.00     0.162 A 
ATOM      6  C5  UNL d   1      -0.131   3.951   2.605  0.00  0.00     0.062 A 
ATOM      7  F   UNL d   1      -0.503   3.287   1.501  0.00  0.00    -0.097 F 
ATOM      8  F1  UNL d   1       2.106   3.322   2.228  0.00  0.00    -0.096 F 
ATOM      9  I   UNL d   1       3.607   4.694   4.699  0.00  0.00    -0.060 I 
ATOM     10  F2  UNL d   1       0.989   5.997   6.000  0.00  0.00    -0.096 F 
ATOM     11  F3  UNL d   1      -1.612   5.944   5.247  0.00  0.00    -0.097 F 
ATOM     12  F4  UNL d   1      -2.370   4.593   3.001  0.00  0.00    -0.092 F 
ENDROOT
TORSDOF 0
ENDMDL
