MODEL 1
REMARK minimizedAffinity 12.7914038
REMARK minimizedRMSD -1
REMARK  0 active torsions:
REMARK  status: ('A' for Active; 'I' for Inactive)
ROOT
ATOM      1  C   UNL d   1      -3.178   0.183  -0.702  0.00  0.00     0.124 A 
ATOM      2  C1  UNL d   1      -3.168  -0.646   0.411  0.00  0.00     0.062 A 
ATOM      3  C2  UNL d   1      -2.081  -0.639   1.280  0.00  0.00     0.162 A 
ATOM      4  C3  UNL d   1      -0.994   0.202   1.040  0.00  0.00    -0.034 A 
ATOM      5  C4  UNL d   1      -1.011   1.033  -0.081  0.00  0.00     0.162 A 
ATOM      6  C5  UNL d   1      -2.100   1.022  -0.947  0.00  0.00     0.062 A 
ATOM      7  F   UNL d   1      -2.107   1.824  -2.021  0.00  0.00    -0.097 F 
ATOM      8  F1  UNL d   1       0.017   1.854  -0.341  0.00  0.00    -0.096 F 
ATOM      9  I   UNL d   1       0.634   0.216   2.338  0.00  0.00    -0.060 I 
ATOM     10  F2  UNL d   1      -2.098  -1.451   2.347  0.00  0.00    -0.096 F 
ATOM     11  F3  UNL d   1      -4.208  -1.459   0.649  0.00  0.00    -0.097 F 
ATOM     12  F4  UNL d   1      -4.225   0.173  -1.537  0.00  0.00    -0.092 F 
ENDROOT
TORSDOF 0
ENDMDL
