MODEL 1
REMARK minimizedAffinity 13.0778904
REMARK minimizedRMSD -1
REMARK  0 active torsions:
REMARK  status: ('A' for Active; 'I' for Inactive)
ROOT
ATOM      1  C   UNL d   1       2.232  -1.963   1.270  0.00  0.00     0.124 A 
ATOM      2  C1  UNL d   1       2.007  -3.322   1.098  0.00  0.00     0.062 A 
ATOM      3  C2  UNL d   1       3.079  -4.206   1.028  0.00  0.00     0.162 A 
ATOM      4  C3  UNL d   1       4.388  -3.734   1.132  0.00  0.00    -0.034 A 
ATOM      5  C4  UNL d   1       4.607  -2.366   1.304  0.00  0.00     0.162 A 
ATOM      6  C5  UNL d   1       3.531  -1.487   1.374  0.00  0.00     0.062 A 
ATOM      7  F   UNL d   1       3.751  -0.174   1.540  0.00  0.00    -0.097 F 
ATOM      8  F1  UNL d   1       5.852  -1.879   1.408  0.00  0.00    -0.096 F 
ATOM      9  I   UNL d   1       5.995  -5.053   1.028  0.00  0.00    -0.060 I 
ATOM     10  F2  UNL d   1       2.832  -5.514   0.861  0.00  0.00    -0.096 F 
ATOM     11  F3  UNL d   1       0.752  -3.785   0.997  0.00  0.00    -0.097 F 
ATOM     12  F4  UNL d   1       1.198  -1.115   1.336  0.00  0.00    -0.092 F 
ENDROOT
TORSDOF 0
ENDMDL
