MODEL 1
REMARK minimizedAffinity 2.70773387
REMARK minimizedRMSD -1
REMARK  0 active torsions:
REMARK  status: ('A' for Active; 'I' for Inactive)
ROOT
ATOM      1  C   UNL d   1      -4.131  -1.821   5.999  0.00  0.00     0.172 C 
ATOM      2  N   UNL d   1      -4.587  -0.598   5.380  0.00  0.00    -0.070 N 
ATOM      3  C1  UNL d   1      -5.300   0.393   6.000  0.00  0.00    -0.004 A 
ATOM      4  C2  UNL d   1      -5.538   1.384   5.073  0.00  0.00    -0.047 A 
ATOM      5  C3  UNL d   1      -4.949   0.974   3.853  0.00  0.00    -0.047 A 
ATOM      6  C4  UNL d   1      -4.367  -0.257   4.071  0.00  0.00    -0.004 A 
ENDROOT
TORSDOF 0
ENDMDL
