MODEL 1
REMARK minimizedAffinity -2.61620498
REMARK minimizedRMSD -1
REMARK  0 active torsions:
REMARK  status: ('A' for Active; 'I' for Inactive)
ROOT
ATOM      1  C   UNL d   1      -2.353  -2.339  -5.999  0.00  0.00     0.172 C 
ATOM      2  N   UNL d   1      -3.788  -2.498  -5.999  0.00  0.00    -0.070 N 
ATOM      3  C1  UNL d   1      -4.459  -3.692  -6.000  0.00  0.00    -0.004 A 
ATOM      4  C2  UNL d   1      -5.810  -3.417  -6.000  0.00  0.00    -0.047 A 
ATOM      5  C3  UNL d   1      -5.955  -2.010  -6.000  0.00  0.00    -0.047 A 
ATOM      6  C4  UNL d   1      -4.689  -1.465  -6.000  0.00  0.00    -0.004 A 
ENDROOT
TORSDOF 0
ENDMDL
