MODEL 1
REMARK minimizedAffinity -0.710296869
REMARK minimizedRMSD -1
REMARK  0 active torsions:
REMARK  status: ('A' for Active; 'I' for Inactive)
ROOT
ATOM      1  C   UNL d   1      -1.512  -0.937  -5.740  0.00  0.00     0.172 C 
ATOM      2  N   UNL d   1      -2.804  -1.579  -5.802  0.00  0.00    -0.070 N 
ATOM      3  C1  UNL d   1      -4.014  -0.952  -5.672  0.00  0.00    -0.004 A 
ATOM      4  C2  UNL d   1      -5.000  -1.907  -5.791  0.00  0.00    -0.047 A 
ATOM      5  C3  UNL d   1      -4.360  -3.152  -5.997  0.00  0.00    -0.047 A 
ATOM      6  C4  UNL d   1      -3.001  -2.920  -6.000  0.00  0.00    -0.004 A 
ENDROOT
TORSDOF 0
ENDMDL
