MODEL 1
REMARK minimizedAffinity -1.98890913
REMARK minimizedRMSD -1
REMARK  0 active torsions:
REMARK  status: ('A' for Active; 'I' for Inactive)
ROOT
ATOM      1  C   UNL d   1      -5.473  -2.196  -5.988  0.00  0.00     0.172 C 
ATOM      2  N   UNL d   1      -4.042  -2.002  -5.972  0.00  0.00    -0.070 N 
ATOM      3  C1  UNL d   1      -3.101  -2.997  -5.999  0.00  0.00    -0.004 A 
ATOM      4  C2  UNL d   1      -1.858  -2.403  -5.971  0.00  0.00    -0.047 A 
ATOM      5  C3  UNL d   1      -2.058  -1.003  -5.925  0.00  0.00    -0.047 A 
ATOM      6  C4  UNL d   1      -3.419  -0.783  -5.926  0.00  0.00    -0.004 A 
ENDROOT
TORSDOF 0
ENDMDL
