MODEL 1
REMARK minimizedAffinity 1.39345884
REMARK minimizedRMSD -1
REMARK  0 active torsions:
REMARK  status: ('A' for Active; 'I' for Inactive)
ROOT
ATOM      1  C   UNL d   1      -2.980  -0.798  -5.999  0.00  0.00     0.172 C 
ATOM      2  N   UNL d   1      -1.588  -1.104  -5.769  0.00  0.00    -0.070 N 
ATOM      3  C1  UNL d   1      -0.647  -0.232  -5.290  0.00  0.00    -0.004 A 
ATOM      4  C2  UNL d   1       0.553  -0.905  -5.214  0.00  0.00    -0.047 A 
ATOM      5  C3  UNL d   1       0.326  -2.228  -5.663  0.00  0.00    -0.047 A 
ATOM      6  C4  UNL d   1      -1.008  -2.323  -6.000  0.00  0.00    -0.004 A 
ENDROOT
TORSDOF 0
ENDMDL
