MODEL 1
REMARK minimizedAffinity 2.53422332
REMARK minimizedRMSD -1
REMARK  0 active torsions:
REMARK  status: ('A' for Active; 'I' for Inactive)
ROOT
ATOM      1  C   UNL d   1      -3.464  -3.718  -6.000  0.00  0.00     0.172 C 
ATOM      2  N   UNL d   1      -2.597  -2.568  -5.891  0.00  0.00    -0.070 N 
ATOM      3  C1  UNL d   1      -3.005  -1.279  -5.672  0.00  0.00    -0.004 A 
ATOM      4  C2  UNL d   1      -1.881  -0.482  -5.632  0.00  0.00    -0.047 A 
ATOM      5  C3  UNL d   1      -0.760  -1.320  -5.835  0.00  0.00    -0.047 A 
ATOM      6  C4  UNL d   1      -1.232  -2.606  -5.992  0.00  0.00    -0.004 A 
ENDROOT
TORSDOF 0
ENDMDL
