MODEL 1
REMARK minimizedAffinity 0.628295898
REMARK minimizedRMSD -1
REMARK  0 active torsions:
REMARK  status: ('A' for Active; 'I' for Inactive)
ROOT
ATOM      1  C   UNL d   1      -5.470   2.780   4.008  0.00  0.00     0.172 C 
ATOM      2  N   UNL d   1      -4.728   2.047   3.009  0.00  0.00    -0.070 N 
ATOM      3  C1  UNL d   1      -4.532   0.692   2.994  0.00  0.00    -0.004 A 
ATOM      4  C2  UNL d   1      -3.777   0.387   1.882  0.00  0.00    -0.047 A 
ATOM      5  C3  UNL d   1      -3.510   1.601   1.205  0.00  0.00    -0.047 A 
ATOM      6  C4  UNL d   1      -4.110   2.613   1.925  0.00  0.00    -0.004 A 
ENDROOT
TORSDOF 0
ENDMDL
