MODEL 1
REMARK minimizedAffinity 1.8296963
REMARK minimizedRMSD -1
REMARK  0 active torsions:
REMARK  status: ('A' for Active; 'I' for Inactive)
ROOT
ATOM      1  C   UNL d   1      -4.279  -4.286  -5.995  0.00  0.00     0.172 C 
ATOM      2  N   UNL d   1      -3.577  -3.045  -5.766  0.00  0.00    -0.070 N 
ATOM      3  C1  UNL d   1      -2.245  -2.826  -5.998  0.00  0.00    -0.004 A 
ATOM      4  C2  UNL d   1      -1.966  -1.521  -5.654  0.00  0.00    -0.047 A 
ATOM      5  C3  UNL d   1      -3.171  -0.936  -5.199  0.00  0.00    -0.047 A 
ATOM      6  C4  UNL d   1      -4.152  -1.902  -5.279  0.00  0.00    -0.004 A 
ENDROOT
TORSDOF 0
ENDMDL
