MODEL 1
REMARK minimizedAffinity -1.16130173
REMARK minimizedRMSD -1
REMARK  0 active torsions:
REMARK  status: ('A' for Active; 'I' for Inactive)
ROOT
ATOM      1  C   UNL d   1      -5.469  -1.943  -5.991  0.00  0.00     0.172 C 
ATOM      2  N   UNL d   1      -4.034  -1.780  -5.994  0.00  0.00    -0.070 N 
ATOM      3  C1  UNL d   1      -3.115  -2.796  -5.998  0.00  0.00    -0.004 A 
ATOM      4  C2  UNL d   1      -1.859  -2.229  -6.000  0.00  0.00    -0.047 A 
ATOM      5  C3  UNL d   1      -2.029  -0.824  -5.996  0.00  0.00    -0.047 A 
ATOM      6  C4  UNL d   1      -3.385  -0.574  -5.992  0.00  0.00    -0.004 A 
ENDROOT
TORSDOF 0
ENDMDL
