MODEL 1
REMARK minimizedAffinity -0.3740924
REMARK minimizedRMSD -1
REMARK  0 active torsions:
REMARK  status: ('A' for Active; 'I' for Inactive)
ROOT
ATOM      1  C   UNL d   1      -3.643  -4.336  -6.000  0.00  0.00     0.172 C 
ATOM      2  N   UNL d   1      -3.092  -3.001  -5.999  0.00  0.00    -0.070 N 
ATOM      3  C1  UNL d   1      -3.817  -1.839  -5.998  0.00  0.00    -0.004 A 
ATOM      4  C2  UNL d   1      -2.927  -0.787  -5.997  0.00  0.00    -0.047 A 
ATOM      5  C3  UNL d   1      -1.622  -1.336  -5.999  0.00  0.00    -0.047 A 
ATOM      6  C4  UNL d   1      -1.754  -2.708  -6.000  0.00  0.00    -0.004 A 
ENDROOT
TORSDOF 0
ENDMDL
