MODEL 1
REMARK minimizedAffinity 1.25867581
REMARK minimizedRMSD -1
REMARK  0 active torsions:
REMARK  status: ('A' for Active; 'I' for Inactive)
ROOT
ATOM      1  C   UNL d   1      -5.982   5.926   5.763  0.00  0.00     0.172 C 
ATOM      2  N   UNL d   1      -5.972   4.595   5.201  0.00  0.00    -0.070 N 
ATOM      3  C1  UNL d   1      -5.958   4.292   3.866  0.00  0.00    -0.004 A 
ATOM      4  C2  UNL d   1      -5.951   2.919   3.745  0.00  0.00    -0.047 A 
ATOM      5  C3  UNL d   1      -5.961   2.379   5.052  0.00  0.00    -0.047 A 
ATOM      6  C4  UNL d   1      -5.974   3.438   5.935  0.00  0.00    -0.004 A 
ENDROOT
TORSDOF 0
ENDMDL
