MODEL 1
REMARK minimizedAffinity -0.325035274
REMARK minimizedRMSD -1
REMARK  0 active torsions:
REMARK  status: ('A' for Active; 'I' for Inactive)
ROOT
ATOM      1  C   UNL d   1       5.879  -5.449   6.000  0.00  0.00     0.172 C 
ATOM      2  N   UNL d   1       5.910  -4.169   5.333  0.00  0.00    -0.070 N 
ATOM      3  C1  UNL d   1       5.860  -3.972   3.979  0.00  0.00    -0.004 A 
ATOM      4  C2  UNL d   1       5.914  -2.615   3.747  0.00  0.00    -0.047 A 
ATOM      5  C3  UNL d   1       6.000  -1.973   5.005  0.00  0.00    -0.047 A 
ATOM      6  C4  UNL d   1       5.996  -2.959   5.970  0.00  0.00    -0.004 A 
ENDROOT
TORSDOF 0
ENDMDL
