MODEL 1
REMARK minimizedAffinity 1.62565351
REMARK minimizedRMSD -1
REMARK  0 active torsions:
REMARK  status: ('A' for Active; 'I' for Inactive)
ROOT
ATOM      1  C   UNL d   1      -1.138  -1.996  -5.997  0.00  0.00     0.172 C 
ATOM      2  N   UNL d   1      -2.580  -1.926  -5.997  0.00  0.00    -0.070 N 
ATOM      3  C1  UNL d   1      -3.324  -0.776  -5.996  0.00  0.00    -0.004 A 
ATOM      4  C2  UNL d   1      -4.654  -1.134  -5.998  0.00  0.00    -0.047 A 
ATOM      5  C3  UNL d   1      -4.713  -2.548  -6.000  0.00  0.00    -0.047 A 
ATOM      6  C4  UNL d   1      -3.414  -3.013  -5.999  0.00  0.00    -0.004 A 
ENDROOT
TORSDOF 0
ENDMDL
