MODEL 1
REMARK minimizedAffinity 0.541728616
REMARK minimizedRMSD -1
REMARK  0 active torsions:
REMARK  status: ('A' for Active; 'I' for Inactive)
ROOT
ATOM      1  C   UNL d   1      -2.606  -0.472  -6.000  0.00  0.00     0.172 C 
ATOM      2  N   UNL d   1      -3.796  -1.289  -6.000  0.00  0.00    -0.070 N 
ATOM      3  C1  UNL d   1      -3.823  -2.659  -5.999  0.00  0.00    -0.004 A 
ATOM      4  C2  UNL d   1      -5.144  -3.054  -5.998  0.00  0.00    -0.047 A 
ATOM      5  C3  UNL d   1      -5.937  -1.882  -5.999  0.00  0.00    -0.047 A 
ATOM      6  C4  UNL d   1      -5.077  -0.804  -6.000  0.00  0.00    -0.004 A 
ENDROOT
TORSDOF 0
ENDMDL
