MODEL 1
REMARK minimizedAffinity 12.9452677
REMARK minimizedRMSD -1
REMARK  0 active torsions:
REMARK  status: ('A' for Active; 'I' for Inactive)
ROOT
ATOM      1  C   UNL d   1      -2.369   0.640   3.898  0.00  0.00     0.023 A 
ATOM      2  C1  UNL d   1      -1.506   1.639   3.446  0.00  0.00     0.003 A 
ATOM      3  C2  UNL d   1      -1.069   1.637   2.119  0.00  0.00     0.048 A 
ATOM      4  C3  UNL d   1      -1.500   0.635   1.251  0.00  0.00     0.023 A 
ATOM      5  C4  UNL d   1      -2.364  -0.365   1.699  0.00  0.00     0.048 A 
ATOM      6  C5  UNL d   1      -2.797  -0.360   3.026  0.00  0.00     0.003 A 
ATOM      7  I   UNL d   1      -0.851   0.631  -0.724  0.00  0.00    -0.146 I 
ENDROOT
TORSDOF 0
ENDMDL
