MODEL 1
REMARK minimizedAffinity 7.37548113
REMARK minimizedRMSD -1
REMARK  0 active torsions:
REMARK  status: ('A' for Active; 'I' for Inactive)
ROOT
ATOM      1  C   UNL d   1       1.837   2.805  -3.391  0.00  0.00     0.023 A 
ATOM      2  C1  UNL d   1       2.580   2.368  -2.294  0.00  0.00     0.003 A 
ATOM      3  C2  UNL d   1       2.404   1.075  -1.799  0.00  0.00     0.048 A 
ATOM      4  C3  UNL d   1       1.483   0.222  -2.407  0.00  0.00     0.023 A 
ATOM      5  C4  UNL d   1       0.737   0.654  -3.505  0.00  0.00     0.048 A 
ATOM      6  C5  UNL d   1       0.917   1.948  -3.995  0.00  0.00     0.003 A 
ATOM      7  I   UNL d   1       1.218  -1.704  -1.672  0.00  0.00    -0.146 I 
ENDROOT
TORSDOF 0
ENDMDL
