MODEL 1
REMARK minimizedAffinity 10.6471205
REMARK minimizedRMSD -1
REMARK  0 active torsions:
REMARK  status: ('A' for Active; 'I' for Inactive)
ROOT
ATOM      1  C   UNL d   1      -4.117   5.585   2.396  0.00  0.00     0.023 A 
ATOM      2  C1  UNL d   1      -4.684   4.541   1.664  0.00  0.00     0.003 A 
ATOM      3  C2  UNL d   1      -4.105   3.271   1.694  0.00  0.00     0.048 A 
ATOM      4  C3  UNL d   1      -2.961   3.050   2.460  0.00  0.00     0.023 A 
ATOM      5  C4  UNL d   1      -2.391   4.091   3.195  0.00  0.00     0.048 A 
ATOM      6  C5  UNL d   1      -2.972   5.360   3.160  0.00  0.00     0.003 A 
ATOM      7  I   UNL d   1      -2.099   1.159   2.507  0.00  0.00    -0.146 I 
ENDROOT
TORSDOF 0
ENDMDL
