MODEL 1
REMARK minimizedAffinity 4.19035244
REMARK minimizedRMSD -1
REMARK  0 active torsions:
REMARK  status: ('A' for Active; 'I' for Inactive)
ROOT
ATOM      1  C   UNL d   1       3.644   5.820   4.755  0.00  0.00     0.023 A 
ATOM      2  C1  UNL d   1       5.034   5.706   4.733  0.00  0.00     0.003 A 
ATOM      3  C2  UNL d   1       5.709   5.615   3.514  0.00  0.00     0.048 A 
ATOM      4  C3  UNL d   1       4.988   5.640   2.321  0.00  0.00     0.023 A 
ATOM      5  C4  UNL d   1       3.597   5.755   2.338  0.00  0.00     0.048 A 
ATOM      6  C5  UNL d   1       2.926   5.844   3.560  0.00  0.00     0.003 A 
ATOM      7  I   UNL d   1       5.989   5.506   0.505  0.00  0.00    -0.146 I 
ENDROOT
TORSDOF 0
ENDMDL
