MODEL 1
REMARK minimizedAffinity 0.0660233572
REMARK minimizedRMSD -1
REMARK  0 active torsions:
REMARK  status: ('A' for Active; 'I' for Inactive)
ROOT
ATOM      1  C   UNL d   1       4.633   5.292   0.751  0.00  0.00     0.023 A 
ATOM      2  C1  UNL d   1       3.637   5.892   1.522  0.00  0.00     0.003 A 
ATOM      3  C2  UNL d   1       3.793   6.000   2.905  0.00  0.00     0.048 A 
ATOM      4  C3  UNL d   1       4.948   5.507   3.511  0.00  0.00     0.023 A 
ATOM      5  C4  UNL d   1       5.948   4.907   2.744  0.00  0.00     0.048 A 
ATOM      6  C5  UNL d   1       5.787   4.800   1.361  0.00  0.00     0.003 A 
ATOM      7  I   UNL d   1       5.182   5.667   5.570  0.00  0.00    -0.146 I 
ENDROOT
TORSDOF 0
ENDMDL
