MODEL 1
REMARK minimizedAffinity 8.23179531
REMARK minimizedRMSD -1
REMARK  0 active torsions:
REMARK  status: ('A' for Active; 'I' for Inactive)
ROOT
ATOM      1  C   UNL d   1       0.634   0.854  -1.523  0.00  0.00     0.023 A 
ATOM      2  C1  UNL d   1       1.309   1.085  -0.324  0.00  0.00     0.003 A 
ATOM      3  C2  UNL d   1       0.591   1.236   0.865  0.00  0.00     0.048 A 
ATOM      4  C3  UNL d   1      -0.801   1.154   0.847  0.00  0.00     0.023 A 
ATOM      5  C4  UNL d   1      -1.480   0.921  -0.351  0.00  0.00     0.048 A 
ATOM      6  C5  UNL d   1      -0.758   0.772  -1.536  0.00  0.00     0.003 A 
ATOM      7  I   UNL d   1      -1.872   1.378   2.614  0.00  0.00    -0.146 I 
ENDROOT
TORSDOF 0
ENDMDL
