MODEL 1
REMARK minimizedAffinity 0.932313621
REMARK minimizedRMSD -1
REMARK  0 active torsions:
REMARK  status: ('A' for Active; 'I' for Inactive)
ROOT
ATOM      1  C   UNL d   1       4.269   5.087   1.446  0.00  0.00     0.023 A 
ATOM      2  C1  UNL d   1       5.494   4.548   1.838  0.00  0.00     0.003 A 
ATOM      3  C2  UNL d   1       5.954   4.731   3.144  0.00  0.00     0.048 A 
ATOM      4  C3  UNL d   1       5.182   5.453   4.053  0.00  0.00     0.023 A 
ATOM      5  C4  UNL d   1       3.954   5.993   3.666  0.00  0.00     0.048 A 
ATOM      6  C5  UNL d   1       3.500   5.809   2.359  0.00  0.00     0.003 A 
ATOM      7  I   UNL d   1       5.863   5.726   5.998  0.00  0.00    -0.146 I 
ENDROOT
TORSDOF 0
ENDMDL
