MODEL 1
REMARK minimizedAffinity 1.65103912
REMARK minimizedRMSD -1
REMARK  0 active torsions:
REMARK  status: ('A' for Active; 'I' for Inactive)
ROOT
ATOM      1  C   UNL d   1       4.651   5.292   0.958  0.00  0.00     0.023 A 
ATOM      2  C1  UNL d   1       5.764   4.639   1.487  0.00  0.00     0.003 A 
ATOM      3  C2  UNL d   1       6.000   4.662   2.863  0.00  0.00     0.048 A 
ATOM      4  C3  UNL d   1       5.118   5.339   3.705  0.00  0.00     0.023 A 
ATOM      5  C4  UNL d   1       4.002   5.994   3.180  0.00  0.00     0.048 A 
ATOM      6  C5  UNL d   1       3.771   5.969   1.803  0.00  0.00     0.003 A 
ATOM      7  I   UNL d   1       5.467   5.375   5.753  0.00  0.00    -0.146 I 
ENDROOT
TORSDOF 0
ENDMDL
