MODEL 1
REMARK minimizedAffinity 7.11526012
REMARK minimizedRMSD -1
REMARK  0 active torsions:
REMARK  status: ('A' for Active; 'I' for Inactive)
ROOT
ATOM      1  C   UNL d   1      -4.272   5.463   2.076  0.00  0.00     0.023 A 
ATOM      2  C1  UNL d   1      -3.092   5.335   2.808  0.00  0.00     0.003 A 
ATOM      3  C2  UNL d   1      -2.451   4.097   2.892  0.00  0.00     0.048 A 
ATOM      4  C3  UNL d   1      -2.996   2.991   2.240  0.00  0.00     0.023 A 
ATOM      5  C4  UNL d   1      -4.177   3.114   1.506  0.00  0.00     0.048 A 
ATOM      6  C5  UNL d   1      -4.814   4.354   1.426  0.00  0.00     0.003 A 
ATOM      7  I   UNL d   1      -2.044   1.148   2.363  0.00  0.00    -0.146 I 
ENDROOT
TORSDOF 0
ENDMDL
