MODEL 1
REMARK minimizedAffinity 9.25303173
REMARK minimizedRMSD -1
REMARK  0 active torsions:
REMARK  status: ('A' for Active; 'I' for Inactive)
ROOT
ATOM      1  C   UNL d   1      -2.492  -0.897   3.111  0.00  0.00     0.023 A 
ATOM      2  C1  UNL d   1      -1.723  -0.102   2.261  0.00  0.00     0.003 A 
ATOM      3  C2  UNL d   1      -1.389   1.201   2.633  0.00  0.00     0.048 A 
ATOM      4  C3  UNL d   1      -1.827   1.704   3.858  0.00  0.00     0.023 A 
ATOM      5  C4  UNL d   1      -2.597   0.913   4.712  0.00  0.00     0.048 A 
ATOM      6  C5  UNL d   1      -2.929  -0.390   4.335  0.00  0.00     0.003 A 
ATOM      7  I   UNL d   1      -1.332   3.645   4.414  0.00  0.00    -0.146 I 
ENDROOT
TORSDOF 0
ENDMDL
