MODEL 1
REMARK minimizedAffinity 1.26826131
REMARK minimizedRMSD -1
REMARK  0 active torsions:
REMARK  status: ('A' for Active; 'I' for Inactive)
ROOT
ATOM      1  C   UNL d   1       5.336   4.851   1.039  0.00  0.00     0.023 A 
ATOM      2  C1  UNL d   1       5.003   5.990   1.772  0.00  0.00     0.003 A 
ATOM      3  C2  UNL d   1       5.161   6.000   3.159  0.00  0.00     0.048 A 
ATOM      4  C3  UNL d   1       5.653   4.868   3.807  0.00  0.00     0.023 A 
ATOM      5  C4  UNL d   1       5.988   3.726   3.078  0.00  0.00     0.048 A 
ATOM      6  C5  UNL d   1       5.828   3.720   1.691  0.00  0.00     0.003 A 
ATOM      7  I   UNL d   1       5.888   4.880   5.872  0.00  0.00    -0.146 I 
ENDROOT
TORSDOF 0
ENDMDL
