MODEL 1
REMARK minimizedAffinity 9.60029507
REMARK minimizedRMSD -1
REMARK  0 active torsions:
REMARK  status: ('A' for Active; 'I' for Inactive)
ROOT
ATOM      1  C   UNL d   1      -2.490  -1.204  -0.358  0.00  0.00     0.023 A 
ATOM      2  C1  UNL d   1      -2.653  -1.599   0.970  0.00  0.00     0.003 A 
ATOM      3  C2  UNL d   1      -2.367  -0.707   2.005  0.00  0.00     0.048 A 
ATOM      4  C3  UNL d   1      -1.919   0.579   1.705  0.00  0.00     0.023 A 
ATOM      5  C4  UNL d   1      -1.755   0.979   0.378  0.00  0.00     0.048 A 
ATOM      6  C5  UNL d   1      -2.042   0.083  -0.654  0.00  0.00     0.003 A 
ATOM      7  I   UNL d   1      -1.492   1.909   3.244  0.00  0.00    -0.146 I 
ENDROOT
TORSDOF 0
ENDMDL
