MODEL 1
REMARK minimizedAffinity 7.0041256
REMARK minimizedRMSD -1
REMARK  0 active torsions:
REMARK  status: ('A' for Active; 'I' for Inactive)
ROOT
ATOM      1  C   UNL d   1       5.310   4.926   5.906  0.00  0.00     0.023 A 
ATOM      2  C1  UNL d   1       4.701   5.971   5.211  0.00  0.00     0.003 A 
ATOM      3  C2  UNL d   1       4.739   5.999   3.816  0.00  0.00     0.048 A 
ATOM      4  C3  UNL d   1       5.387   4.978   3.121  0.00  0.00     0.023 A 
ATOM      5  C4  UNL d   1       5.997   3.930   3.812  0.00  0.00     0.048 A 
ATOM      6  C5  UNL d   1       5.958   3.907   5.207  0.00  0.00     0.003 A 
ATOM      7  I   UNL d   1       5.444   5.017   1.044  0.00  0.00    -0.146 I 
ENDROOT
TORSDOF 0
ENDMDL
