MODEL 1
REMARK minimizedAffinity 6.50465107
REMARK minimizedRMSD -1
REMARK  0 active torsions:
REMARK  status: ('A' for Active; 'I' for Inactive)
ROOT
ATOM      1  C   UNL d   1       4.878   5.405   5.218  0.00  0.00     0.023 A 
ATOM      2  C1  UNL d   1       3.806   5.972   4.528  0.00  0.00     0.003 A 
ATOM      3  C2  UNL d   1       3.802   5.986   3.132  0.00  0.00     0.048 A 
ATOM      4  C3  UNL d   1       4.872   5.430   2.432  0.00  0.00     0.023 A 
ATOM      5  C4  UNL d   1       5.946   4.861   3.118  0.00  0.00     0.048 A 
ATOM      6  C5  UNL d   1       5.946   4.850   4.514  0.00  0.00     0.003 A 
ATOM      7  I   UNL d   1       4.867   5.450   0.353  0.00  0.00    -0.146 I 
ENDROOT
TORSDOF 0
ENDMDL
