MODEL 1
REMARK minimizedAffinity -1.28255081
REMARK minimizedRMSD -1
REMARK  0 active torsions:
REMARK  status: ('A' for Active; 'I' for Inactive)
ROOT
ATOM      1  C   UNL d   1       4.584   5.243   0.478  0.00  0.00     0.023 A 
ATOM      2  C1  UNL d   1       5.668   4.493   0.935  0.00  0.00     0.003 A 
ATOM      3  C2  UNL d   1       5.999   4.495   2.291  0.00  0.00     0.048 A 
ATOM      4  C3  UNL d   1       5.240   5.248   3.187  0.00  0.00     0.023 A 
ATOM      5  C4  UNL d   1       4.154   6.000   2.735  0.00  0.00     0.048 A 
ATOM      6  C5  UNL d   1       3.828   5.995   1.377  0.00  0.00     0.003 A 
ATOM      7  I   UNL d   1       5.730   5.252   5.206  0.00  0.00    -0.146 I 
ENDROOT
TORSDOF 0
ENDMDL
