MODEL 1
REMARK minimizedAffinity 9.99312878
REMARK minimizedRMSD -1
REMARK  0 active torsions:
REMARK  status: ('A' for Active; 'I' for Inactive)
ROOT
ATOM      1  C   UNL d   1      -1.826   2.371   2.173  0.00  0.00     0.023 A 
ATOM      2  C1  UNL d   1      -3.041   2.959   1.822  0.00  0.00     0.003 A 
ATOM      3  C2  UNL d   1      -4.240   2.280   2.053  0.00  0.00     0.048 A 
ATOM      4  C3  UNL d   1      -4.215   1.014   2.636  0.00  0.00     0.023 A 
ATOM      5  C4  UNL d   1      -3.002   0.422   2.991  0.00  0.00     0.048 A 
ATOM      6  C5  UNL d   1      -1.806   1.104   2.757  0.00  0.00     0.003 A 
ATOM      7  I   UNL d   1      -5.997   0.001   2.981  0.00  0.00    -0.146 I 
ENDROOT
TORSDOF 0
ENDMDL
