MODEL 1
REMARK minimizedAffinity -3.45289111
REMARK minimizedRMSD -1
REMARK  0 active torsions:
REMARK  status: ('A' for Active; 'I' for Inactive)
ROOT
ATOM      1  C1  DEN d   1      -1.162  -0.861  -0.211  0.00  0.00     0.130 A 
ATOM      2  C2  DEN d   1      -0.008  -1.723   0.027  0.00  0.00    -0.031 A 
ATOM      3  C3  DEN d   1       1.075  -0.891   0.590  0.00  0.00     0.027 A 
ATOM      4  C4  DEN d   1       1.073   1.634   1.118  0.00  0.00     0.027 A 
ATOM      5  C5  DEN d   1       0.324   2.789   1.075  0.00  0.00    -0.003 A 
ATOM      6  C6  DEN d   1      -0.950   2.815   0.573  0.00  0.00     0.001 A 
ATOM      7  C7  DEN d   1      -1.531   1.654   0.136  0.00  0.00     0.017 A 
ATOM      8  C8  DEN d   1      -0.780   0.487   0.169  0.00  0.00    -0.094 A 
ATOM      9  C9  DEN d   1       0.503   0.479   0.691  0.00  0.00    -0.072 A 
ENDROOT
TORSDOF 0
ENDMDL
