MODEL 1
REMARK minimizedAffinity -5.25212049
REMARK minimizedRMSD -1
REMARK  0 active torsions:
REMARK  status: ('A' for Active; 'I' for Inactive)
ROOT
ATOM      1  C1  DEN d   1      -0.780  -0.376   1.195  0.00  0.00     0.130 A 
ATOM      2  C2  DEN d   1      -1.943   0.338   1.713  0.00  0.00    -0.031 A 
ATOM      3  C3  DEN d   1      -1.787   1.768   1.379  0.00  0.00     0.027 A 
ATOM      4  C4  DEN d   1       0.131   2.938   0.112  0.00  0.00     0.027 A 
ATOM      5  C5  DEN d   1       1.344   2.748  -0.512  0.00  0.00    -0.003 A 
ATOM      6  C6  DEN d   1       1.946   1.519  -0.580  0.00  0.00     0.001 A 
ATOM      7  C7  DEN d   1       1.313   0.424  -0.054  0.00  0.00     0.017 A 
ATOM      8  C8  DEN d   1       0.093   0.608   0.583  0.00  0.00    -0.094 A 
ATOM      9  C9  DEN d   1      -0.504   1.857   0.631  0.00  0.00    -0.072 A 
ENDROOT
TORSDOF 0
ENDMDL
