MODEL 1
REMARK minimizedAffinity -5.5110383
REMARK minimizedRMSD -1
REMARK  0 active torsions:
REMARK  status: ('A' for Active; 'I' for Inactive)
ROOT
ATOM      1  C1  DEN d   1      -1.380  -0.085   0.325  0.00  0.00     0.130 A 
ATOM      2  C2  DEN d   1      -0.583  -1.279   0.056  0.00  0.00    -0.031 A 
ATOM      3  C3  DEN d   1       0.811  -0.852  -0.179  0.00  0.00     0.027 A 
ATOM      4  C4  DEN d   1       1.808   1.526  -0.147  0.00  0.00     0.027 A 
ATOM      5  C5  DEN d   1       1.520   2.862   0.025  0.00  0.00    -0.003 A 
ATOM      6  C6  DEN d   1       0.249   3.309   0.272  0.00  0.00     0.001 A 
ATOM      7  C7  DEN d   1      -0.775   2.407   0.401  0.00  0.00     0.017 A 
ATOM      8  C8  DEN d   1      -0.493   1.059   0.222  0.00  0.00    -0.094 A 
ATOM      9  C9  DEN d   1       0.801   0.626  -0.015  0.00  0.00    -0.072 A 
ENDROOT
TORSDOF 0
ENDMDL
