MODEL 1
REMARK minimizedAffinity -1.88502395
REMARK minimizedRMSD -1
REMARK  0 active torsions:
REMARK  status: ('A' for Active; 'I' for Inactive)
ROOT
ATOM      1  C1  DEN d   1       2.355   0.083   0.357  0.00  0.00     0.130 A 
ATOM      2  C2  DEN d   1       2.075  -1.350   0.368  0.00  0.00    -0.031 A 
ATOM      3  C3  DEN d   1       0.612  -1.529   0.282  0.00  0.00     0.027 A 
ATOM      4  C4  DEN d   1      -1.237   0.263   0.129  0.00  0.00     0.027 A 
ATOM      5  C5  DEN d   1      -1.488   1.617   0.098  0.00  0.00    -0.003 A 
ATOM      6  C6  DEN d   1      -0.487   2.547   0.184  0.00  0.00     0.001 A 
ATOM      7  C7  DEN d   1       0.818   2.135   0.260  0.00  0.00     0.017 A 
ATOM      8  C8  DEN d   1       1.078   0.772   0.300  0.00  0.00    -0.094 A 
ATOM      9  C9  DEN d   1       0.053  -0.153   0.199  0.00  0.00    -0.072 A 
ENDROOT
TORSDOF 0
ENDMDL
