MODEL 1
REMARK minimizedAffinity -4.58165121
REMARK minimizedRMSD -1
REMARK  0 active torsions:
REMARK  status: ('A' for Active; 'I' for Inactive)
ROOT
ATOM      1  C1  DEN d   1       0.427   3.774   0.316  0.00  0.00     0.130 A 
ATOM      2  C2  DEN d   1       1.536   3.436  -0.572  0.00  0.00    -0.031 A 
ATOM      3  C3  DEN d   1       1.322   2.062  -1.068  0.00  0.00     0.027 A 
ATOM      4  C4  DEN d   1      -0.612   0.434  -0.553  0.00  0.00     0.027 A 
ATOM      5  C5  DEN d   1      -1.781   0.269   0.155  0.00  0.00    -0.003 A 
ATOM      6  C6  DEN d   1      -2.275   1.239   0.987  0.00  0.00     0.001 A 
ATOM      7  C7  DEN d   1      -1.620   2.437   1.096  0.00  0.00     0.017 A 
ATOM      8  C8  DEN d   1      -0.436   2.609   0.390  0.00  0.00    -0.094 A 
ATOM      9  C9  DEN d   1       0.040   1.620  -0.455  0.00  0.00    -0.072 A 
ENDROOT
TORSDOF 0
ENDMDL
