MODEL 1
REMARK minimizedAffinity -2.7707901
REMARK minimizedRMSD -1
REMARK  0 active torsions:
REMARK  status: ('A' for Active; 'I' for Inactive)
ROOT
ATOM      1  C1  DEN d   1       1.004  -0.489  -0.803  0.00  0.00     0.130 A 
ATOM      2  C2  DEN d   1       0.496  -1.797  -0.401  0.00  0.00    -0.031 A 
ATOM      3  C3  DEN d   1      -0.590  -1.585   0.577  0.00  0.00     0.027 A 
ATOM      4  C4  DEN d   1      -1.530   0.632   1.501  0.00  0.00     0.027 A 
ATOM      5  C5  DEN d   1      -1.410   2.004   1.465  0.00  0.00    -0.003 A 
ATOM      6  C6  DEN d   1      -0.463   2.634   0.703  0.00  0.00     0.001 A 
ATOM      7  C7  DEN d   1       0.373   1.894  -0.090  0.00  0.00     0.017 A 
ATOM      8  C8  DEN d   1       0.264   0.510  -0.053  0.00  0.00    -0.094 A 
ATOM      9  C9  DEN d   1      -0.708  -0.108   0.715  0.00  0.00    -0.072 A 
ENDROOT
TORSDOF 0
ENDMDL
