MODEL 1
REMARK minimizedAffinity -3.51635981
REMARK minimizedRMSD -1
REMARK  0 active torsions:
REMARK  status: ('A' for Active; 'I' for Inactive)
ROOT
ATOM      1  C1  DEN d   1       0.607   2.847   0.338  0.00  0.00     0.130 A 
ATOM      2  C2  DEN d   1      -0.237   3.754   1.112  0.00  0.00    -0.031 A 
ATOM      3  C3  DEN d   1      -1.320   2.960   1.724  0.00  0.00     0.027 A 
ATOM      4  C4  DEN d   1      -1.769   0.426   1.554  0.00  0.00     0.027 A 
ATOM      5  C5  DEN d   1      -1.332  -0.757   1.000  0.00  0.00    -0.003 A 
ATOM      6  C6  DEN d   1      -0.247  -0.816   0.166  0.00  0.00     0.001 A 
ATOM      7  C7  DEN d   1       0.465   0.323  -0.102  0.00  0.00     0.017 A 
ATOM      8  C8  DEN d   1       0.026   1.521   0.447  0.00  0.00    -0.094 A 
ATOM      9  C9  DEN d   1      -1.066   1.557   1.297  0.00  0.00    -0.072 A 
ENDROOT
TORSDOF 0
ENDMDL
