MODEL 1
REMARK minimizedAffinity -4.81997252
REMARK minimizedRMSD -1
REMARK  0 active torsions:
REMARK  status: ('A' for Active; 'I' for Inactive)
ROOT
ATOM      1  C1  DEN d   1       1.749  -0.207  -0.185  0.00  0.00     0.130 A 
ATOM      2  C2  DEN d   1       1.030  -1.446   0.099  0.00  0.00    -0.031 A 
ATOM      3  C3  DEN d   1      -0.365  -1.097   0.437  0.00  0.00     0.027 A 
ATOM      4  C4  DEN d   1      -1.476   1.228   0.543  0.00  0.00     0.027 A 
ATOM      5  C5  DEN d   1      -1.265   2.581   0.394  0.00  0.00    -0.003 A 
ATOM      6  C6  DEN d   1      -0.036   3.097   0.078  0.00  0.00     0.001 A 
ATOM      7  C7  DEN d   1       1.019   2.252  -0.144  0.00  0.00     0.017 A 
ATOM      8  C8  DEN d   1       0.815   0.887   0.011  0.00  0.00    -0.094 A 
ATOM      9  C9  DEN d   1      -0.437   0.384   0.319  0.00  0.00    -0.072 A 
ENDROOT
TORSDOF 0
ENDMDL
