MODEL 1
REMARK minimizedAffinity 0.246357724
REMARK minimizedRMSD -1
REMARK  0 active torsions:
REMARK  status: ('A' for Active; 'I' for Inactive)
ROOT
ATOM      1  C1  DEN d   1       0.215  -0.275   0.400  0.00  0.00     0.130 A 
ATOM      2  C2  DEN d   1      -0.714  -0.919   1.325  0.00  0.00    -0.031 A 
ATOM      3  C3  DEN d   1      -1.513   0.137   1.977  0.00  0.00     0.027 A 
ATOM      4  C4  DEN d   1      -1.407   2.692   1.644  0.00  0.00     0.027 A 
ATOM      5  C5  DEN d   1      -0.769   3.711   0.972  0.00  0.00    -0.003 A 
ATOM      6  C6  DEN d   1       0.256   3.477   0.094  0.00  0.00     0.001 A 
ATOM      7  C7  DEN d   1       0.644   2.190  -0.169  0.00  0.00     0.017 A 
ATOM      8  C8  DEN d   1       0.010   1.158   0.511  0.00  0.00    -0.094 A 
ATOM      9  C9  DEN d   1      -1.032   1.414   1.385  0.00  0.00    -0.072 A 
ENDROOT
TORSDOF 0
ENDMDL
