MODEL 1
REMARK minimizedAffinity -2.82324743
REMARK minimizedRMSD -1
REMARK  0 active torsions:
REMARK  status: ('A' for Active; 'I' for Inactive)
ROOT
ATOM      1  C1  DEN d   1      -0.157   2.310  -0.490  0.00  0.00     0.130 A 
ATOM      2  C2  DEN d   1       1.103   2.326  -1.227  0.00  0.00    -0.031 A 
ATOM      3  C3  DEN d   1       1.801   1.050  -0.966  0.00  0.00     0.027 A 
ATOM      4  C4  DEN d   1       1.052  -0.938   0.496  0.00  0.00     0.027 A 
ATOM      5  C5  DEN d   1       0.061  -1.409   1.328  0.00  0.00    -0.003 A 
ATOM      6  C6  DEN d   1      -1.047  -0.666   1.638  0.00  0.00     0.001 A 
ATOM      7  C7  DEN d   1      -1.212   0.572   1.075  0.00  0.00     0.017 A 
ATOM      8  C8  DEN d   1      -0.214   1.057   0.240  0.00  0.00    -0.094 A 
ATOM      9  C9  DEN d   1       0.893   0.285  -0.070  0.00  0.00    -0.072 A 
ENDROOT
TORSDOF 0
ENDMDL
