MODEL 1
REMARK minimizedAffinity -3.03759623
REMARK minimizedRMSD -1
REMARK  0 active torsions:
REMARK  status: ('A' for Active; 'I' for Inactive)
ROOT
ATOM      1  C1  DEN d   1       0.780   0.200  -1.292  0.00  0.00     0.130 A 
ATOM      2  C2  DEN d   1       0.012  -1.040  -1.364  0.00  0.00    -0.031 A 
ATOM      3  C3  DEN d   1      -1.113  -0.935  -0.412  0.00  0.00     0.027 A 
ATOM      4  C4  DEN d   1      -1.738   1.018   1.153  0.00  0.00     0.027 A 
ATOM      5  C5  DEN d   1      -1.376   2.278   1.575  0.00  0.00    -0.003 A 
ATOM      6  C6  DEN d   1      -0.261   2.915   1.099  0.00  0.00     0.001 A 
ATOM      7  C7  DEN d   1       0.509   2.312   0.140  0.00  0.00     0.017 A 
ATOM      8  C8  DEN d   1       0.155   1.038  -0.285  0.00  0.00    -0.094 A 
ATOM      9  C9  DEN d   1      -0.984   0.415   0.199  0.00  0.00    -0.072 A 
ENDROOT
TORSDOF 0
ENDMDL
