MODEL 1
REMARK minimizedAffinity -3.92740965
REMARK minimizedRMSD -1
REMARK  0 active torsions:
REMARK  status: ('A' for Active; 'I' for Inactive)
ROOT
ATOM      1  C1  DEN d   1      -1.224   0.025  -0.179  0.00  0.00     0.130 A 
ATOM      2  C2  DEN d   1      -1.623  -1.321   0.223  0.00  0.00    -0.031 A 
ATOM      3  C3  DEN d   1      -0.439  -2.001   0.784  0.00  0.00     0.027 A 
ATOM      4  C4  DEN d   1       1.962  -1.102   1.074  0.00  0.00     0.027 A 
ATOM      5  C5  DEN d   1       2.787  -0.019   0.869  0.00  0.00    -0.003 A 
ATOM      6  C6  DEN d   1       2.346   1.134   0.275  0.00  0.00     0.001 A 
ATOM      7  C7  DEN d   1       1.031   1.246  -0.095  0.00  0.00     0.017 A 
ATOM      8  C8  DEN d   1       0.195   0.155   0.101  0.00  0.00    -0.094 A 
ATOM      9  C9  DEN d   1       0.657  -0.997   0.715  0.00  0.00    -0.072 A 
ENDROOT
TORSDOF 0
ENDMDL
