MODEL 1
REMARK minimizedAffinity -1.31930149
REMARK minimizedRMSD -1
REMARK  0 active torsions:
REMARK  status: ('A' for Active; 'I' for Inactive)
ROOT
ATOM      1  C1  DEN d   1       0.752  -0.929   0.525  0.00  0.00     0.130 A 
ATOM      2  C2  DEN d   1       2.121  -0.421   0.513  0.00  0.00    -0.031 A 
ATOM      3  C3  DEN d   1       2.063   1.050   0.624  0.00  0.00     0.027 A 
ATOM      4  C4  DEN d   1      -0.003   2.582   0.816  0.00  0.00     0.027 A 
ATOM      5  C5  DEN d   1      -1.379   2.611   0.856  0.00  0.00    -0.003 A 
ATOM      6  C6  DEN d   1      -2.137   1.474   0.755  0.00  0.00     0.001 A 
ATOM      7  C7  DEN d   1      -1.520   0.255   0.654  0.00  0.00     0.017 A 
ATOM      8  C8  DEN d   1      -0.133   0.219   0.606  0.00  0.00    -0.094 A 
ATOM      9  C9  DEN d   1       0.615   1.378   0.721  0.00  0.00    -0.072 A 
ENDROOT
TORSDOF 0
ENDMDL
