MODEL 1
REMARK minimizedAffinity 1.40589011
REMARK minimizedRMSD -1
REMARK  1 active torsions:
REMARK  status: ('A' for Active; 'I' for Inactive)
REMARK    1  A    between atoms: C1_2  and  C2_3 
ROOT
ATOM      1  C2  UNL d   1      -0.522  -1.070  -3.875  0.00  0.00    -0.077 A 
ATOM      2  C3  UNL d   1      -1.453  -0.022  -3.883  0.00  0.00     0.002 A 
ATOM      3  C4  UNL d   1      -1.481   0.890  -4.940  0.00  0.00     0.002 A 
ATOM      4  C5  UNL d   1      -0.584   0.761  -5.998  0.00  0.00    -0.004 A 
ATOM      5  C6  UNL d   1       0.347  -0.277  -5.998  0.00  0.00     0.002 A 
ATOM      6  C7  UNL d   1       0.377  -1.189  -4.942  0.00  0.00     0.002 A 
ENDROOT
BRANCH   1   7
ATOM      7  C1  UNL d   1      -0.523  -2.083  -2.760  0.00  0.00     0.055 C 
ATOM      8  C   UNL d   1      -1.100  -1.497  -1.480  0.00  0.00     0.019 C 
ENDBRANCH   1   7
TORSDOF 1
ENDMDL
