MODEL 1
REMARK minimizedAffinity -1.88783646
REMARK minimizedRMSD -1
REMARK  1 active torsions:
REMARK  status: ('A' for Active; 'I' for Inactive)
REMARK    1  A    between atoms: C1_2  and  C2_3 
ROOT
ATOM      1  C2  UNL d   1      -0.008  -1.067  -3.726  0.00  0.00    -0.077 A 
ATOM      2  C3  UNL d   1      -1.169  -0.282  -3.745  0.00  0.00     0.002 A 
ATOM      3  C4  UNL d   1      -1.498   0.466  -4.877  0.00  0.00     0.002 A 
ATOM      4  C5  UNL d   1      -0.673   0.433  -5.999  0.00  0.00    -0.004 A 
ATOM      5  C6  UNL d   1       0.485  -0.343  -5.989  0.00  0.00     0.002 A 
ATOM      6  C7  UNL d   1       0.816  -1.090  -4.858  0.00  0.00     0.002 A 
ENDROOT
BRANCH   1   7
ATOM      7  C1  UNL d   1       0.322  -1.912  -2.524  0.00  0.00     0.055 C 
ATOM      8  C   UNL d   1       0.652  -3.342  -2.927  0.00  0.00     0.019 C 
ENDBRANCH   1   7
TORSDOF 1
ENDMDL
