MODEL 1
REMARK minimizedAffinity 0.461351097
REMARK minimizedRMSD -1
REMARK  1 active torsions:
REMARK  status: ('A' for Active; 'I' for Inactive)
REMARK    1  A    between atoms: C1_2  and  C2_3 
ROOT
ATOM      1  C2  UNL d   1      -3.075   0.477   1.648  0.00  0.00    -0.077 A 
ATOM      2  C3  UNL d   1      -2.033   0.364   2.580  0.00  0.00     0.002 A 
ATOM      3  C4  UNL d   1      -1.018  -0.576   2.394  0.00  0.00     0.002 A 
ATOM      4  C5  UNL d   1      -1.033  -1.407   1.275  0.00  0.00    -0.004 A 
ATOM      5  C6  UNL d   1      -2.065  -1.303   0.344  0.00  0.00     0.002 A 
ATOM      6  C7  UNL d   1      -3.081  -0.365   0.529  0.00  0.00     0.002 A 
ENDROOT
BRANCH   1   7
ATOM      7  C1  UNL d   1      -4.144   1.524   1.822  0.00  0.00     0.055 C 
ATOM      8  C   UNL d   1      -5.194   1.431   0.724  0.00  0.00     0.019 C 
ENDBRANCH   1   7
TORSDOF 1
ENDMDL
