MODEL 1
REMARK minimizedAffinity -1.82229602
REMARK minimizedRMSD -1
REMARK  1 active torsions:
REMARK  status: ('A' for Active; 'I' for Inactive)
REMARK    1  A    between atoms: C1_2  and  C2_3 
ROOT
ATOM      1  C2  UNL d   1       0.626   0.682  -4.889  0.00  0.00    -0.077 A 
ATOM      2  C3  UNL d   1      -0.135   1.076  -5.999  0.00  0.00     0.002 A 
ATOM      3  C4  UNL d   1      -1.524   0.930  -5.990  0.00  0.00     0.002 A 
ATOM      4  C5  UNL d   1      -2.163   0.394  -4.874  0.00  0.00    -0.004 A 
ATOM      5  C6  UNL d   1      -1.414  -0.003  -3.767  0.00  0.00     0.002 A 
ATOM      6  C7  UNL d   1      -0.026   0.142  -3.774  0.00  0.00     0.002 A 
ENDROOT
BRANCH   1   7
ATOM      7  C1  UNL d   1       2.119   0.885  -4.877  0.00  0.00     0.055 C 
ATOM      8  C   UNL d   1       2.792   0.109  -6.000  0.00  0.00     0.019 C 
ENDBRANCH   1   7
TORSDOF 1
ENDMDL
