MODEL 1
REMARK minimizedAffinity -2.94464731
REMARK minimizedRMSD -1
REMARK  1 active torsions:
REMARK  status: ('A' for Active; 'I' for Inactive)
REMARK    1  A    between atoms: C1_2  and  C2_3 
ROOT
ATOM      1  C2  UNL d   1      -1.868  -0.529   0.189  0.00  0.00    -0.077 A 
ATOM      2  C3  UNL d   1      -3.139   0.056   0.097  0.00  0.00     0.002 A 
ATOM      3  C4  UNL d   1      -3.834   0.420   1.253  0.00  0.00     0.002 A 
ATOM      4  C5  UNL d   1      -3.264   0.207   2.506  0.00  0.00    -0.004 A 
ATOM      5  C6  UNL d   1      -2.002  -0.376   2.607  0.00  0.00     0.002 A 
ATOM      6  C7  UNL d   1      -1.306  -0.741   1.454  0.00  0.00     0.002 A 
ENDROOT
BRANCH   1   7
ATOM      7  C1  UNL d   1      -1.097  -0.877  -1.058  0.00  0.00     0.055 C 
ATOM      8  C   UNL d   1      -0.464  -2.256  -0.949  0.00  0.00     0.019 C 
ENDBRANCH   1   7
TORSDOF 1
ENDMDL
