MODEL 1
REMARK minimizedAffinity 0.518733263
REMARK minimizedRMSD -1
REMARK  1 active torsions:
REMARK  status: ('A' for Active; 'I' for Inactive)
REMARK    1  A    between atoms: C1_2  and  C2_3 
ROOT
ATOM      1  C2  UNL d   1       1.942  -0.040  -5.562  0.00  0.00    -0.077 A 
ATOM      2  C3  UNL d   1       0.871   0.752  -6.000  0.00  0.00     0.002 A 
ATOM      3  C4  UNL d   1      -0.443   0.399  -5.686  0.00  0.00     0.002 A 
ATOM      4  C5  UNL d   1      -0.698  -0.743  -4.929  0.00  0.00    -0.004 A 
ATOM      5  C6  UNL d   1       0.360  -1.538  -4.491  0.00  0.00     0.002 A 
ATOM      6  C7  UNL d   1       1.674  -1.188  -4.805  0.00  0.00     0.002 A 
ENDROOT
BRANCH   1   7
ATOM      7  C1  UNL d   1       3.362   0.365  -5.858  0.00  0.00     0.055 C 
ATOM      8  C   UNL d   1       4.267  -0.850  -5.999  0.00  0.00     0.019 C 
ENDBRANCH   1   7
TORSDOF 1
ENDMDL
