MODEL 1
REMARK minimizedAffinity 3.1508708
REMARK minimizedRMSD -1
REMARK  0 active torsions:
REMARK  status: ('A' for Active; 'I' for Inactive)
ROOT
ATOM      1  C2' OXE d   1       4.131  -2.794  -5.978  0.00  0.00     0.078 C 
ATOM      2  C1' OXE d   1       4.127  -0.085  -5.244  0.00  0.00     0.078 C 
ATOM      3  C1  OXE d   1       2.794  -0.761  -5.447  0.00  0.00    -0.078 A 
ATOM      4  C2  OXE d   1       2.806  -2.074  -5.851  0.00  0.00    -0.078 A 
ATOM      5  C3  OXE d   1       1.604  -2.760  -6.000  0.00  0.00     0.003 A 
ATOM      6  C4  OXE d   1       0.383  -2.084  -5.890  0.00  0.00    -0.002 A 
ATOM      7  C5  OXE d   1       0.349  -0.736  -5.518  0.00  0.00    -0.002 A 
ATOM      8  C6  OXE d   1       1.541  -0.073  -5.252  0.00  0.00     0.003 A 
ENDROOT
TORSDOF 0
ENDMDL
