MODEL 1
REMARK minimizedAffinity 9.01202297
REMARK minimizedRMSD -1
REMARK  0 active torsions:
REMARK  status: ('A' for Active; 'I' for Inactive)
ROOT
ATOM      1  C2' OXE d   1       2.802  -0.705   5.596  0.00  0.00     0.078 C 
ATOM      2  C1' OXE d   1       1.214   1.599   5.825  0.00  0.00     0.078 C 
ATOM      3  C1  OXE d   1       1.101   0.789   4.557  0.00  0.00    -0.078 A 
ATOM      4  C2  OXE d   1       1.915  -0.310   4.434  0.00  0.00    -0.078 A 
ATOM      5  C3  OXE d   1       1.812  -1.123   3.309  0.00  0.00     0.003 A 
ATOM      6  C4  OXE d   1       0.997  -0.745   2.235  0.00  0.00    -0.002 A 
ATOM      7  C5  OXE d   1       0.188   0.393   2.323  0.00  0.00    -0.002 A 
ATOM      8  C6  OXE d   1       0.197   1.146   3.492  0.00  0.00     0.003 A 
ENDROOT
TORSDOF 0
ENDMDL
