MODEL 1
REMARK minimizedAffinity 12.5082512
REMARK minimizedRMSD -1
REMARK  0 active torsions:
REMARK  status: ('A' for Active; 'I' for Inactive)
ROOT
ATOM      1  C2' OXE d   1      -1.187   3.014   3.107  0.00  0.00     0.078 C 
ATOM      2  C1' OXE d   1       0.104   2.693   5.578  0.00  0.00     0.078 C 
ATOM      3  C1  OXE d   1       0.375   1.669   4.505  0.00  0.00    -0.078 A 
ATOM      4  C2  OXE d   1      -0.298   1.808   3.314  0.00  0.00    -0.078 A 
ATOM      5  C3  OXE d   1      -0.043   0.922   2.271  0.00  0.00     0.003 A 
ATOM      6  C4  OXE d   1       0.773  -0.197   2.475  0.00  0.00    -0.002 A 
ATOM      7  C5  OXE d   1       1.437  -0.380   3.693  0.00  0.00    -0.002 A 
ATOM      8  C6  OXE d   1       1.282   0.565   4.701  0.00  0.00     0.003 A 
ENDROOT
TORSDOF 0
ENDMDL
