MODEL 1
REMARK minimizedAffinity 6.30679321
REMARK minimizedRMSD -1
REMARK  0 active torsions:
REMARK  status: ('A' for Active; 'I' for Inactive)
ROOT
ATOM      1  C2' OXE d   1      -0.159   1.121   2.515  0.00  0.00     0.078 C 
ATOM      2  C1' OXE d   1      -0.573  -1.376   1.301  0.00  0.00     0.078 C 
ATOM      3  C1  OXE d   1       0.275  -1.332   2.548  0.00  0.00    -0.078 A 
ATOM      4  C2  OXE d   1       0.511  -0.100   3.109  0.00  0.00    -0.078 A 
ATOM      5  C3  OXE d   1       1.240  -0.009   4.290  0.00  0.00     0.003 A 
ATOM      6  C4  OXE d   1       1.865  -1.141   4.827  0.00  0.00    -0.002 A 
ATOM      7  C5  OXE d   1       1.670  -2.400   4.249  0.00  0.00    -0.002 A 
ATOM      8  C6  OXE d   1       0.845  -2.519   3.136  0.00  0.00     0.003 A 
ENDROOT
TORSDOF 0
ENDMDL
