MODEL 1
REMARK minimizedAffinity 6.3167901
REMARK minimizedRMSD -1
REMARK  0 active torsions:
REMARK  status: ('A' for Active; 'I' for Inactive)
ROOT
ATOM      1  C2' OXE d   1       1.615   0.124  -5.094  0.00  0.00     0.078 C 
ATOM      2  C1' OXE d   1       0.983  -2.498  -5.871  0.00  0.00     0.078 C 
ATOM      3  C1  OXE d   1       0.362  -1.971  -4.602  0.00  0.00    -0.078 A 
ATOM      4  C2  OXE d   1       0.713  -0.704  -4.204  0.00  0.00    -0.078 A 
ATOM      5  C3  OXE d   1       0.127  -0.149  -3.070  0.00  0.00     0.003 A 
ATOM      6  C4  OXE d   1      -0.699  -0.926  -2.248  0.00  0.00    -0.002 A 
ATOM      7  C5  OXE d   1      -1.038  -2.233  -2.613  0.00  0.00    -0.002 A 
ATOM      8  C6  OXE d   1      -0.552  -2.755  -3.807  0.00  0.00     0.003 A 
ENDROOT
TORSDOF 0
ENDMDL
