MODEL 1
REMARK minimizedAffinity 6.85135174
REMARK minimizedRMSD -1
REMARK  0 active torsions:
REMARK  status: ('A' for Active; 'I' for Inactive)
ROOT
ATOM      1  C2' OXE d   1      -1.875  -0.743   2.437  0.00  0.00     0.078 C 
ATOM      2  C1' OXE d   1       0.367   0.937   2.261  0.00  0.00     0.078 C 
ATOM      3  C1  OXE d   1       0.534  -0.388   2.963  0.00  0.00    -0.078 A 
ATOM      4  C2  OXE d   1      -0.580  -1.183   3.086  0.00  0.00    -0.078 A 
ATOM      5  C3  OXE d   1      -0.469  -2.438   3.676  0.00  0.00     0.003 A 
ATOM      6  C4  OXE d   1       0.730  -2.833   4.283  0.00  0.00    -0.002 A 
ATOM      7  C5  OXE d   1       1.866  -2.021   4.204  0.00  0.00    -0.002 A 
ATOM      8  C6  OXE d   1       1.796  -0.817   3.513  0.00  0.00     0.003 A 
ENDROOT
TORSDOF 0
ENDMDL
