MODEL 1
REMARK minimizedAffinity 14.5057163
REMARK minimizedRMSD -1
REMARK  0 active torsions:
REMARK  status: ('A' for Active; 'I' for Inactive)
ROOT
ATOM      1  C2' OXE d   1       2.345  -2.491   3.356  0.00  0.00     0.078 C 
ATOM      2  C1' OXE d   1       4.790  -2.455   4.734  0.00  0.00     0.078 C 
ATOM      3  C1  OXE d   1       4.313  -1.165   4.115  0.00  0.00    -0.078 A 
ATOM      4  C2  OXE d   1       3.138  -1.203   3.403  0.00  0.00    -0.078 A 
ATOM      5  C3  OXE d   1       2.625  -0.029   2.858  0.00  0.00     0.003 A 
ATOM      6  C4  OXE d   1       3.370   1.156   2.897  0.00  0.00    -0.002 A 
ATOM      7  C5  OXE d   1       4.588   1.206   3.584  0.00  0.00    -0.002 A 
ATOM      8  C6  OXE d   1       5.052   0.067   4.233  0.00  0.00     0.003 A 
ENDROOT
TORSDOF 0
ENDMDL
