MODEL 1
REMARK minimizedAffinity 13.5846796
REMARK minimizedRMSD -1
REMARK  0 active torsions:
REMARK  status: ('A' for Active; 'I' for Inactive)
ROOT
ATOM      1  C2' OXE d   1       1.870  -0.293   3.436  0.00  0.00     0.078 C 
ATOM      2  C1' OXE d   1      -0.299   1.235   2.518  0.00  0.00     0.078 C 
ATOM      3  C1  OXE d   1       0.081   0.007   1.729  0.00  0.00    -0.078 A 
ATOM      4  C2  OXE d   1       1.172  -0.709   2.159  0.00  0.00    -0.078 A 
ATOM      5  C3  OXE d   1       1.532  -1.881   1.500  0.00  0.00     0.003 A 
ATOM      6  C4  OXE d   1       0.887  -2.253   0.314  0.00  0.00    -0.002 A 
ATOM      7  C5  OXE d   1      -0.202  -1.516  -0.164  0.00  0.00    -0.002 A 
ATOM      8  C6  OXE d   1      -0.644  -0.410   0.554  0.00  0.00     0.003 A 
ENDROOT
TORSDOF 0
ENDMDL
