MODEL 1
REMARK minimizedAffinity 10.6274624
REMARK minimizedRMSD -1
REMARK  0 active torsions:
REMARK  status: ('A' for Active; 'I' for Inactive)
ROOT
ATOM      1  C2' OXE d   1       0.753  -0.478  -5.131  0.00  0.00     0.078 C 
ATOM      2  C1' OXE d   1       3.063  -1.167  -3.693  0.00  0.00     0.078 C 
ATOM      3  C1  OXE d   1       1.727  -1.415  -3.038  0.00  0.00    -0.078 A 
ATOM      4  C2  OXE d   1       0.603  -1.031  -3.730  0.00  0.00    -0.078 A 
ATOM      5  C3  OXE d   1      -0.656  -1.287  -3.195  0.00  0.00     0.003 A 
ATOM      6  C4  OXE d   1      -0.785  -1.790  -1.895  0.00  0.00    -0.002 A 
ATOM      7  C5  OXE d   1       0.347  -2.150  -1.157  0.00  0.00    -0.002 A 
ATOM      8  C6  OXE d   1       1.607  -2.009  -1.730  0.00  0.00     0.003 A 
ENDROOT
TORSDOF 0
ENDMDL
