MODEL 1
REMARK minimizedAffinity 7.22101736
REMARK minimizedRMSD -1
REMARK  0 active torsions:
REMARK  status: ('A' for Active; 'I' for Inactive)
ROOT
ATOM      1  C2' OXE d   1       3.407  -0.078   3.623  0.00  0.00     0.078 C 
ATOM      2  C1' OXE d   1       1.737  -2.301   3.236  0.00  0.00     0.078 C 
ATOM      3  C1  OXE d   1       2.894  -2.448   4.192  0.00  0.00    -0.078 A 
ATOM      4  C2  OXE d   1       3.733  -1.370   4.340  0.00  0.00    -0.078 A 
ATOM      5  C3  OXE d   1       4.784  -1.434   5.251  0.00  0.00     0.003 A 
ATOM      6  C4  OXE d   1       5.084  -2.636   5.903  0.00  0.00    -0.002 A 
ATOM      7  C5  OXE d   1       4.266  -3.758   5.736  0.00  0.00    -0.002 A 
ATOM      8  C6  OXE d   1       3.144  -3.668   4.919  0.00  0.00     0.003 A 
ENDROOT
TORSDOF 0
ENDMDL
