MODEL 1
REMARK minimizedAffinity -1.34399807
REMARK minimizedRMSD -1
REMARK  0 active torsions:
REMARK  status: ('A' for Active; 'I' for Inactive)
ROOT
ATOM      1  C1  DEN d   1      -1.799   0.201   0.862  0.00  0.00     0.130 A 
ATOM      2  C2  DEN d   1      -0.758  -0.408   1.685  0.00  0.00    -0.031 A 
ATOM      3  C3  DEN d   1       0.546  -0.126   1.054  0.00  0.00     0.027 A 
ATOM      4  C4  DEN d   1       1.054   1.193  -1.103  0.00  0.00     0.027 A 
ATOM      5  C5  DEN d   1       0.493   1.889  -2.151  0.00  0.00    -0.003 A 
ATOM      6  C6  DEN d   1      -0.861   2.042  -2.286  0.00  0.00     0.001 A 
ATOM      7  C7  DEN d   1      -1.700   1.528  -1.332  0.00  0.00     0.017 A 
ATOM      8  C8  DEN d   1      -1.142   0.819  -0.276  0.00  0.00    -0.094 A 
ATOM      9  C9  DEN d   1       0.230   0.686  -0.151  0.00  0.00    -0.072 A 
ENDROOT
TORSDOF 0
ENDMDL
