MODEL 1
REMARK minimizedAffinity -5.27105474
REMARK minimizedRMSD -1
REMARK  0 active torsions:
REMARK  status: ('A' for Active; 'I' for Inactive)
ROOT
ATOM      1  C1  DEN d   1      -1.414   0.367   0.821  0.00  0.00     0.130 A 
ATOM      2  C2  DEN d   1      -1.090   0.777  -0.542  0.00  0.00    -0.031 A 
ATOM      3  C3  DEN d   1       0.340   0.491  -0.777  0.00  0.00     0.027 A 
ATOM      4  C4  DEN d   1       2.072  -0.547   0.828  0.00  0.00     0.027 A 
ATOM      5  C5  DEN d   1       2.269  -1.046   2.096  0.00  0.00    -0.003 A 
ATOM      6  C6  DEN d   1       1.269  -1.077   3.032  0.00  0.00     0.001 A 
ATOM      7  C7  DEN d   1       0.013  -0.642   2.699  0.00  0.00     0.017 A 
ATOM      8  C8  DEN d   1      -0.191  -0.131   1.424  0.00  0.00    -0.094 A 
ATOM      9  C9  DEN d   1       0.829  -0.119   0.489  0.00  0.00    -0.072 A 
ENDROOT
TORSDOF 0
ENDMDL
