MODEL 1
REMARK minimizedAffinity -0.541136801
REMARK minimizedRMSD -1
REMARK  0 active torsions:
REMARK  status: ('A' for Active; 'I' for Inactive)
ROOT
ATOM      1  C1  DEN d   1       1.168  -0.368  -1.041  0.00  0.00     0.130 A 
ATOM      2  C2  DEN d   1       0.217   0.300  -1.926  0.00  0.00    -0.031 A 
ATOM      3  C3  DEN d   1      -0.949   0.708  -1.118  0.00  0.00     0.027 A 
ATOM      4  C4  DEN d   1      -1.372   0.377   1.405  0.00  0.00     0.027 A 
ATOM      5  C5  DEN d   1      -0.857  -0.146   2.570  0.00  0.00    -0.003 A 
ATOM      6  C6  DEN d   1       0.344  -0.805   2.607  0.00  0.00     0.001 A 
ATOM      7  C7  DEN d   1       1.091  -0.918   1.464  0.00  0.00     0.017 A 
ATOM      8  C8  DEN d   1       0.575  -0.399   0.284  0.00  0.00    -0.094 A 
ATOM      9  C9  DEN d   1      -0.635   0.274   0.270  0.00  0.00    -0.072 A 
ENDROOT
TORSDOF 0
ENDMDL
