MODEL 1
REMARK minimizedAffinity -2.14097214
REMARK minimizedRMSD -1
REMARK  0 active torsions:
REMARK  status: ('A' for Active; 'I' for Inactive)
ROOT
ATOM      1  C1  DEN d   1      -1.169   0.588  -1.244  0.00  0.00     0.130 A 
ATOM      2  C2  DEN d   1      -0.007   0.845  -2.091  0.00  0.00    -0.031 A 
ATOM      3  C3  DEN d   1       1.205   0.510  -1.317  0.00  0.00     0.027 A 
ATOM      4  C4  DEN d   1       1.395  -0.383   1.095  0.00  0.00     0.027 A 
ATOM      5  C5  DEN d   1       0.683  -0.748   2.216  0.00  0.00    -0.003 A 
ATOM      6  C6  DEN d   1      -0.683  -0.662   2.274  0.00  0.00     0.001 A 
ATOM      7  C7  DEN d   1      -1.383  -0.243   1.174  0.00  0.00     0.017 A 
ATOM      8  C8  DEN d   1      -0.672   0.134   0.043  0.00  0.00    -0.094 A 
ATOM      9  C9  DEN d   1       0.708   0.029   0.000  0.00  0.00    -0.072 A 
ENDROOT
TORSDOF 0
ENDMDL
