MODEL 1
REMARK minimizedAffinity -2.43372226
REMARK minimizedRMSD -1
REMARK  0 active torsions:
REMARK  status: ('A' for Active; 'I' for Inactive)
ROOT
ATOM      1  C1  DEN d   1      -1.191   0.342  -0.739  0.00  0.00     0.130 A 
ATOM      2  C2  DEN d   1      -1.973   0.736   0.429  0.00  0.00    -0.031 A 
ATOM      3  C3  DEN d   1      -1.163   0.464   1.634  0.00  0.00     0.027 A 
ATOM      4  C4  DEN d   1       1.215  -0.520   1.802  0.00  0.00     0.027 A 
ATOM      5  C5  DEN d   1       2.277  -1.018   1.081  0.00  0.00    -0.003 A 
ATOM      6  C6  DEN d   1       2.245  -1.129  -0.284  0.00  0.00     0.001 A 
ATOM      7  C7  DEN d   1       1.145  -0.694  -0.975  0.00  0.00     0.017 A 
ATOM      8  C8  DEN d   1       0.067  -0.197  -0.254  0.00  0.00    -0.094 A 
ATOM      9  C9  DEN d   1       0.124  -0.082   1.125  0.00  0.00    -0.072 A 
ENDROOT
TORSDOF 0
ENDMDL
