MODEL 1
REMARK minimizedAffinity -1.18885958
REMARK minimizedRMSD -1
REMARK  0 active torsions:
REMARK  status: ('A' for Active; 'I' for Inactive)
ROOT
ATOM      1  C1  DEN d   1       1.645   0.903  -0.220  0.00  0.00     0.130 A 
ATOM      2  C2  DEN d   1       0.479   1.123  -1.072  0.00  0.00    -0.031 A 
ATOM      3  C3  DEN d   1      -0.694   0.528  -0.402  0.00  0.00     0.027 A 
ATOM      4  C4  DEN d   1      -0.821  -0.700   1.862  0.00  0.00     0.027 A 
ATOM      5  C5  DEN d   1      -0.088  -1.142   2.942  0.00  0.00    -0.003 A 
ATOM      6  C6  DEN d   1       1.267  -0.964   3.027  0.00  0.00     0.001 A 
ATOM      7  C7  DEN d   1       1.927  -0.288   2.035  0.00  0.00     0.017 A 
ATOM      8  C8  DEN d   1       1.196   0.154   0.939  0.00  0.00    -0.094 A 
ATOM      9  C9  DEN d   1      -0.175  -0.025   0.877  0.00  0.00    -0.072 A 
ENDROOT
TORSDOF 0
ENDMDL
