MODEL 1
REMARK minimizedAffinity -4.22178841
REMARK minimizedRMSD -1
REMARK  0 active torsions:
REMARK  status: ('A' for Active; 'I' for Inactive)
ROOT
ATOM      1  C1  DEN d   1      -0.678   3.210  -1.375  0.00  0.00     0.130 A 
ATOM      2  C2  DEN d   1      -0.609   3.231  -2.833  0.00  0.00    -0.031 A 
ATOM      3  C3  DEN d   1      -0.268   1.870  -3.294  0.00  0.00     0.027 A 
ATOM      4  C4  DEN d   1       0.152  -0.258  -1.898  0.00  0.00     0.027 A 
ATOM      5  C5  DEN d   1       0.217  -0.767  -0.620  0.00  0.00    -0.003 A 
ATOM      6  C6  DEN d   1       0.023   0.014   0.488  0.00  0.00     0.001 A 
ATOM      7  C7  DEN d   1      -0.290   1.339   0.338  0.00  0.00     0.017 A 
ATOM      8  C8  DEN d   1      -0.350   1.862  -0.947  0.00  0.00    -0.094 A 
ATOM      9  C9  DEN d   1      -0.163   1.053  -2.055  0.00  0.00    -0.072 A 
ENDROOT
TORSDOF 0
ENDMDL
