MODEL 1
REMARK minimizedAffinity 6.83179426
REMARK minimizedRMSD -1
REMARK  0 active torsions:
REMARK  status: ('A' for Active; 'I' for Inactive)
ROOT
ATOM      1  C2' OXE d   1       0.833  -2.180  -0.663  0.00  0.00     0.078 C 
ATOM      2  C1' OXE d   1       3.239  -0.772  -0.996  0.00  0.00     0.078 C 
ATOM      3  C1  OXE d   1       2.035  -0.003  -0.513  0.00  0.00    -0.078 A 
ATOM      4  C2  OXE d   1       0.851  -0.690  -0.398  0.00  0.00    -0.078 A 
ATOM      5  C3  OXE d   1      -0.277  -0.040   0.095  0.00  0.00     0.003 A 
ATOM      6  C4  OXE d   1      -0.256   1.340   0.329  0.00  0.00    -0.002 A 
ATOM      7  C5  OXE d   1       0.931   2.067   0.179  0.00  0.00    -0.002 A 
ATOM      8  C6  OXE d   1       2.093   1.403  -0.199  0.00  0.00     0.003 A 
ENDROOT
TORSDOF 0
ENDMDL
