MODEL 1
REMARK minimizedAffinity 1.05348337
REMARK minimizedRMSD -1
REMARK  0 active torsions:
REMARK  status: ('A' for Active; 'I' for Inactive)
ROOT
ATOM      1  C2' OXE d   1       3.801   0.846  -0.415  0.00  0.00     0.078 C 
ATOM      2  C1' OXE d   1       1.047   1.164   0.024  0.00  0.00     0.078 C 
ATOM      3  C1  OXE d   1       1.558  -0.226  -0.264  0.00  0.00    -0.078 A 
ATOM      4  C2  OXE d   1       2.900  -0.365  -0.523  0.00  0.00    -0.078 A 
ATOM      5  C3  OXE d   1       3.432  -1.633  -0.740  0.00  0.00     0.003 A 
ATOM      6  C4  OXE d   1       2.590  -2.746  -0.849  0.00  0.00    -0.002 A 
ATOM      7  C5  OXE d   1       1.215  -2.620  -0.627  0.00  0.00    -0.002 A 
ATOM      8  C6  OXE d   1       0.690  -1.377  -0.292  0.00  0.00     0.003 A 
ENDROOT
TORSDOF 0
ENDMDL
