MODEL 1
REMARK minimizedAffinity 6.09190226
REMARK minimizedRMSD -1
REMARK  0 active torsions:
REMARK  status: ('A' for Active; 'I' for Inactive)
ROOT
ATOM      1  C2' OXE d   1       0.553  -2.123   5.925  0.00  0.00     0.078 C 
ATOM      2  C1' OXE d   1       2.126  -4.439   5.727  0.00  0.00     0.078 C 
ATOM      3  C1  OXE d   1       0.630  -4.610   5.804  0.00  0.00    -0.078 A 
ATOM      4  C2  OXE d   1      -0.130  -3.474   5.947  0.00  0.00    -0.078 A 
ATOM      5  C3  OXE d   1      -1.518  -3.571   5.968  0.00  0.00     0.003 A 
ATOM      6  C4  OXE d   1      -2.141  -4.824   5.998  0.00  0.00    -0.002 A 
ATOM      7  C5  OXE d   1      -1.384  -5.996   5.893  0.00  0.00    -0.002 A 
ATOM      8  C6  OXE d   1      -0.003  -5.904   5.752  0.00  0.00     0.003 A 
ENDROOT
TORSDOF 0
ENDMDL
