MODEL 1
REMARK minimizedAffinity 1.51457322
REMARK minimizedRMSD -1
REMARK  0 active torsions:
REMARK  status: ('A' for Active; 'I' for Inactive)
ROOT
ATOM      1  C2' OXE d   1      -0.472  -2.482  -1.642  0.00  0.00     0.078 C 
ATOM      2  C1' OXE d   1       2.137  -2.318  -0.618  0.00  0.00     0.078 C 
ATOM      3  C1  OXE d   1       1.241  -1.116  -0.457  0.00  0.00    -0.078 A 
ATOM      4  C2  OXE d   1      -0.019  -1.188  -1.002  0.00  0.00    -0.078 A 
ATOM      5  C3  OXE d   1      -0.905  -0.127  -0.834  0.00  0.00     0.003 A 
ATOM      6  C4  OXE d   1      -0.474   1.070  -0.249  0.00  0.00    -0.002 A 
ATOM      7  C5  OXE d   1       0.817   1.179   0.278  0.00  0.00    -0.002 A 
ATOM      8  C6  OXE d   1       1.671   0.083   0.220  0.00  0.00     0.003 A 
ENDROOT
TORSDOF 0
ENDMDL
