MODEL 1
REMARK minimizedAffinity 0.385905057
REMARK minimizedRMSD -1
REMARK  0 active torsions:
REMARK  status: ('A' for Active; 'I' for Inactive)
ROOT
ATOM      1  C2' OXE d   1       3.191   1.664   0.067  0.00  0.00     0.078 C 
ATOM      2  C1' OXE d   1       1.189   0.898   1.880  0.00  0.00     0.078 C 
ATOM      3  C1  OXE d   1       1.688  -0.138   0.904  0.00  0.00    -0.078 A 
ATOM      4  C2  OXE d   1       2.634   0.259  -0.011  0.00  0.00    -0.078 A 
ATOM      5  C3  OXE d   1       3.167  -0.671  -0.898  0.00  0.00     0.003 A 
ATOM      6  C4  OXE d   1       2.639  -1.966  -0.970  0.00  0.00    -0.002 A 
ATOM      7  C5  OXE d   1       1.647  -2.379  -0.074  0.00  0.00    -0.002 A 
ATOM      8  C6  OXE d   1       1.192  -1.492   0.895  0.00  0.00     0.003 A 
ENDROOT
TORSDOF 0
ENDMDL
