MODEL 1
REMARK minimizedAffinity 6.10603285
REMARK minimizedRMSD -1
REMARK  0 active torsions:
REMARK  status: ('A' for Active; 'I' for Inactive)
ROOT
ATOM      1  C2' OXE d   1      -0.370   0.703  -0.730  0.00  0.00     0.078 C 
ATOM      2  C1' OXE d   1       2.359   0.184  -0.323  0.00  0.00     0.078 C 
ATOM      3  C1  OXE d   1       1.445  -0.994  -0.552  0.00  0.00    -0.078 A 
ATOM      4  C2  OXE d   1       0.104  -0.734  -0.704  0.00  0.00    -0.078 A 
ATOM      5  C3  OXE d   1      -0.774  -1.780  -0.973  0.00  0.00     0.003 A 
ATOM      6  C4  OXE d   1      -0.329  -3.107  -0.937  0.00  0.00    -0.002 A 
ATOM      7  C5  OXE d   1       1.026  -3.396  -0.745  0.00  0.00    -0.002 A 
ATOM      8  C6  OXE d   1       1.931  -2.351  -0.594  0.00  0.00     0.003 A 
ENDROOT
TORSDOF 0
ENDMDL
