MODEL 1
REMARK minimizedAffinity 6.80239487
REMARK minimizedRMSD -1
REMARK  0 active torsions:
REMARK  status: ('A' for Active; 'I' for Inactive)
ROOT
ATOM      1  C2' OXE d   1      -1.596  -5.950   5.991  0.00  0.00     0.078 C 
ATOM      2  C1' OXE d   1       1.208  -5.823   5.972  0.00  0.00     0.078 C 
ATOM      3  C1  OXE d   1       0.445  -4.522   5.977  0.00  0.00    -0.078 A 
ATOM      4  C2  OXE d   1      -0.927  -4.593   5.939  0.00  0.00    -0.078 A 
ATOM      5  C3  OXE d   1      -1.680  -3.424   5.996  0.00  0.00     0.003 A 
ATOM      6  C4  OXE d   1      -1.053  -2.174   5.938  0.00  0.00    -0.002 A 
ATOM      7  C5  OXE d   1       0.342  -2.078   5.935  0.00  0.00    -0.002 A 
ATOM      8  C6  OXE d   1       1.105  -3.240   5.998  0.00  0.00     0.003 A 
ENDROOT
TORSDOF 0
ENDMDL
