MODEL 1
REMARK minimizedAffinity 3.6684103
REMARK minimizedRMSD -1
REMARK  0 active torsions:
REMARK  status: ('A' for Active; 'I' for Inactive)
ROOT
ATOM      1  C2' OXE d   1       2.682  -2.673  -1.316  0.00  0.00     0.078 C 
ATOM      2  C1' OXE d   1       0.470  -1.517  -0.032  0.00  0.00     0.078 C 
ATOM      3  C1  OXE d   1       1.711  -0.674  -0.191  0.00  0.00    -0.078 A 
ATOM      4  C2  OXE d   1       2.804  -1.263  -0.778  0.00  0.00    -0.078 A 
ATOM      5  C3  OXE d   1       3.956  -0.514  -0.998  0.00  0.00     0.003 A 
ATOM      6  C4  OXE d   1       4.064   0.786  -0.489  0.00  0.00    -0.002 A 
ATOM      7  C5  OXE d   1       2.976   1.392   0.148  0.00  0.00    -0.002 A 
ATOM      8  C6  OXE d   1       1.780   0.691   0.267  0.00  0.00     0.003 A 
ENDROOT
TORSDOF 0
ENDMDL
