MODEL 1
REMARK minimizedAffinity -0.999276221
REMARK minimizedRMSD -1
REMARK  0 active torsions:
REMARK  status: ('A' for Active; 'I' for Inactive)
ROOT
ATOM      1  C2' OXE d   1      -1.487   0.276  -0.739  0.00  0.00     0.078 C 
ATOM      2  C1' OXE d   1       0.447   2.157   0.039  0.00  0.00     0.078 C 
ATOM      3  C1  OXE d   1       0.872   0.714  -0.070  0.00  0.00    -0.078 A 
ATOM      4  C2  OXE d   1      -0.091  -0.206  -0.406  0.00  0.00    -0.078 A 
ATOM      5  C3  OXE d   1       0.260  -1.542  -0.573  0.00  0.00     0.003 A 
ATOM      6  C4  OXE d   1       1.550  -1.981  -0.253  0.00  0.00    -0.002 A 
ATOM      7  C5  OXE d   1       2.537  -1.066   0.129  0.00  0.00    -0.002 A 
ATOM      8  C6  OXE d   1       2.226   0.288   0.184  0.00  0.00     0.003 A 
ENDROOT
TORSDOF 0
ENDMDL
