MODEL 1
REMARK minimizedAffinity 11.612936
REMARK minimizedRMSD -1
REMARK  0 active torsions:
REMARK  status: ('A' for Active; 'I' for Inactive)
ROOT
ATOM      1  C2' OXE d   1       0.602   1.857   4.007  0.00  0.00     0.078 C 
ATOM      2  C1' OXE d   1       2.241   0.751   6.000  0.00  0.00     0.078 C 
ATOM      3  C1  OXE d   1       1.507  -0.198   5.085  0.00  0.00    -0.078 A 
ATOM      4  C2  OXE d   1       0.671   0.351   4.143  0.00  0.00    -0.078 A 
ATOM      5  C3  OXE d   1       0.013  -0.478   3.239  0.00  0.00     0.003 A 
ATOM      6  C4  OXE d   1       0.075  -1.869   3.378  0.00  0.00    -0.002 A 
ATOM      7  C5  OXE d   1       0.889  -2.449   4.356  0.00  0.00    -0.002 A 
ATOM      8  C6  OXE d   1       1.644  -1.630   5.189  0.00  0.00     0.003 A 
ENDROOT
TORSDOF 0
ENDMDL
