MODEL 1
REMARK minimizedAffinity -1.05774939
REMARK minimizedRMSD -1
REMARK  0 active torsions:
REMARK  status: ('A' for Active; 'I' for Inactive)
ROOT
ATOM      1  C   UNL d   1       2.361  -0.255   1.151  0.00  0.00     0.124 A 
ATOM      2  C1  UNL d   1       2.021   1.074   0.943  0.00  0.00     0.062 A 
ATOM      3  C2  UNL d   1       0.828   1.401   0.306  0.00  0.00     0.162 A 
ATOM      4  C3  UNL d   1      -0.037   0.395  -0.127  0.00  0.00    -0.034 A 
ATOM      5  C4  UNL d   1       0.312  -0.940   0.085  0.00  0.00     0.162 A 
ATOM      6  C5  UNL d   1       1.506  -1.261   0.723  0.00  0.00     0.062 A 
ATOM      7  F   UNL d   1       1.832  -2.546   0.923  0.00  0.00    -0.097 F 
ATOM      8  F1  UNL d   1      -0.496  -1.932  -0.318  0.00  0.00    -0.096 F 
ATOM      9  I   UNL d   1      -1.823   0.879  -1.080  0.00  0.00    -0.060 I 
ATOM     10  F2  UNL d   1       0.525   2.694   0.118  0.00  0.00    -0.096 F 
ATOM     11  F3  UNL d   1       2.846   2.048   1.356  0.00  0.00    -0.097 F 
ATOM     12  F4  UNL d   1       3.510  -0.566   1.764  0.00  0.00    -0.092 F 
ENDROOT
TORSDOF 0
ENDMDL
