MODEL 1
REMARK minimizedAffinity -1.11119151
REMARK minimizedRMSD -1
REMARK  0 active torsions:
REMARK  status: ('A' for Active; 'I' for Inactive)
ROOT
ATOM      1  C   UNL d   1      -1.962  -0.050   0.367  0.00  0.00     0.124 A 
ATOM      2  C1  UNL d   1      -1.256  -1.137   0.866  0.00  0.00     0.062 A 
ATOM      3  C2  UNL d   1       0.128  -1.070   1.000  0.00  0.00     0.162 A 
ATOM      4  C3  UNL d   1       0.815   0.087   0.635  0.00  0.00    -0.034 A 
ATOM      5  C4  UNL d   1       0.099   1.175   0.133  0.00  0.00     0.162 A 
ATOM      6  C5  UNL d   1      -1.284   1.104   0.001  0.00  0.00     0.062 A 
ATOM      7  F   UNL d   1      -1.964   2.154  -0.481  0.00  0.00    -0.097 F 
ATOM      8  F1  UNL d   1       0.729   2.303  -0.227  0.00  0.00    -0.096 F 
ATOM      9  I   UNL d   1       2.885   0.190   0.834  0.00  0.00    -0.060 I 
ATOM     10  F2  UNL d   1       0.784  -2.135   1.485  0.00  0.00    -0.096 F 
ATOM     11  F3  UNL d   1      -1.909  -2.253   1.219  0.00  0.00    -0.097 F 
ATOM     12  F4  UNL d   1      -3.293  -0.117   0.238  0.00  0.00    -0.092 F 
ENDROOT
TORSDOF 0
ENDMDL
