MODEL 1
REMARK minimizedAffinity -4.98498011
REMARK minimizedRMSD -1
REMARK  0 active torsions:
REMARK  status: ('A' for Active; 'I' for Inactive)
ROOT
ATOM      1  C   UNL d   1       2.246  -1.507   1.674  0.00  0.00     0.124 A 
ATOM      2  C1  UNL d   1       1.026  -2.022   2.091  0.00  0.00     0.062 A 
ATOM      3  C2  UNL d   1      -0.153  -1.614   1.475  0.00  0.00     0.162 A 
ATOM      4  C3  UNL d   1      -0.119  -0.685   0.434  0.00  0.00    -0.034 A 
ATOM      5  C4  UNL d   1       1.112  -0.171   0.021  0.00  0.00     0.162 A 
ATOM      6  C5  UNL d   1       2.288  -0.582   0.640  0.00  0.00     0.062 A 
ATOM      7  F   UNL d   1       3.465  -0.083   0.236  0.00  0.00    -0.097 F 
ATOM      8  F1  UNL d   1       1.181   0.723  -0.976  0.00  0.00    -0.096 F 
ATOM      9  I   UNL d   1      -1.880  -0.072  -0.490  0.00  0.00    -0.060 I 
ATOM     10  F2  UNL d   1      -1.317  -2.128   1.898  0.00  0.00    -0.096 F 
ATOM     11  F3  UNL d   1       0.984  -2.915   3.090  0.00  0.00    -0.097 F 
ATOM     12  F4  UNL d   1       3.379  -1.900   2.269  0.00  0.00    -0.092 F 
ENDROOT
TORSDOF 0
ENDMDL
