MODEL 1
REMARK minimizedAffinity 0.400857598
REMARK minimizedRMSD -1
REMARK  0 active torsions:
REMARK  status: ('A' for Active; 'I' for Inactive)
ROOT
ATOM      1  C   UNL d   1      -0.619  -1.756   1.709  0.00  0.00     0.124 A 
ATOM      2  C1  UNL d   1       0.684  -2.074   1.355  0.00  0.00     0.062 A 
ATOM      3  C2  UNL d   1       1.545  -1.084   0.889  0.00  0.00     0.162 A 
ATOM      4  C3  UNL d   1       1.104   0.234   0.775  0.00  0.00    -0.034 A 
ATOM      5  C4  UNL d   1      -0.208   0.547   1.133  0.00  0.00     0.162 A 
ATOM      6  C5  UNL d   1      -1.064  -0.446   1.598  0.00  0.00     0.062 A 
ATOM      7  F   UNL d   1      -2.323  -0.137   1.940  0.00  0.00    -0.097 F 
ATOM      8  F1  UNL d   1      -0.664   1.805   1.036  0.00  0.00    -0.096 F 
ATOM      9  I   UNL d   1       2.388   1.717   0.079  0.00  0.00    -0.060 I 
ATOM     10  F2  UNL d   1       2.799  -1.421   0.553  0.00  0.00    -0.096 F 
ATOM     11  F3  UNL d   1       1.116  -3.339   1.461  0.00  0.00    -0.097 F 
ATOM     12  F4  UNL d   1      -1.445  -2.710   2.157  0.00  0.00    -0.092 F 
ENDROOT
TORSDOF 0
ENDMDL
