MODEL 1
REMARK minimizedAffinity 1.38129854
REMARK minimizedRMSD -1
REMARK  0 active torsions:
REMARK  status: ('A' for Active; 'I' for Inactive)
ROOT
ATOM      1  C   UNL d   1       1.277  -0.473   1.571  0.00  0.00     0.124 A 
ATOM      2  C1  UNL d   1       1.357   0.728   0.880  0.00  0.00     0.062 A 
ATOM      3  C2  UNL d   1       0.310   1.133   0.056  0.00  0.00     0.162 A 
ATOM      4  C3  UNL d   1      -0.827   0.336  -0.079  0.00  0.00    -0.034 A 
ATOM      5  C4  UNL d   1      -0.900  -0.871   0.619  0.00  0.00     0.162 A 
ATOM      6  C5  UNL d   1       0.149  -1.271   1.440  0.00  0.00     0.062 A 
ATOM      7  F   UNL d   1       0.070  -2.431   2.108  0.00  0.00    -0.097 F 
ATOM      8  F1  UNL d   1      -1.978  -1.661   0.512  0.00  0.00    -0.096 F 
ATOM      9  I   UNL d   1      -2.395   0.937  -1.309  0.00  0.00    -0.060 I 
ATOM     10  F2  UNL d   1       0.414   2.298  -0.600  0.00  0.00    -0.096 F 
ATOM     11  F3  UNL d   1       2.446   1.501   1.003  0.00  0.00    -0.097 F 
ATOM     12  F4  UNL d   1       2.286  -0.860   2.362  0.00  0.00    -0.092 F 
ENDROOT
TORSDOF 0
ENDMDL
