MODEL 1
REMARK minimizedAffinity 2.70705962
REMARK minimizedRMSD -1
REMARK  0 active torsions:
REMARK  status: ('A' for Active; 'I' for Inactive)
ROOT
ATOM      1  C   UNL d   1       1.286  -0.293   1.287  0.00  0.00     0.124 A 
ATOM      2  C1  UNL d   1       0.133  -1.063   1.239  0.00  0.00     0.062 A 
ATOM      3  C2  UNL d   1      -0.848  -0.796   0.288  0.00  0.00     0.162 A 
ATOM      4  C3  UNL d   1      -0.679   0.247  -0.623  0.00  0.00    -0.034 A 
ATOM      5  C4  UNL d   1       0.483   1.017  -0.568  0.00  0.00     0.162 A 
ATOM      6  C5  UNL d   1       1.461   0.746   0.384  0.00  0.00     0.062 A 
ATOM      7  F   UNL d   1       2.575   1.491   0.429  0.00  0.00    -0.097 F 
ATOM      8  F1  UNL d   1       0.678   2.027  -1.429  0.00  0.00    -0.096 F 
ATOM      9  I   UNL d   1      -2.143   0.650  -2.046  0.00  0.00    -0.060 I 
ATOM     10  F2  UNL d   1      -1.953  -1.556   0.265  0.00  0.00    -0.096 F 
ATOM     11  F3  UNL d   1      -0.039  -2.067   2.111  0.00  0.00    -0.097 F 
ATOM     12  F4  UNL d   1       2.228  -0.552   2.203  0.00  0.00    -0.092 F 
ENDROOT
TORSDOF 0
ENDMDL
