MODEL 1
REMARK minimizedAffinity -1.03475249
REMARK minimizedRMSD -1
REMARK  0 active torsions:
REMARK  status: ('A' for Active; 'I' for Inactive)
ROOT
ATOM      1  C   UNL d   1       2.029  -0.456   1.260  0.00  0.00     0.124 A 
ATOM      2  C1  UNL d   1       0.911  -1.279   1.271  0.00  0.00     0.062 A 
ATOM      3  C2  UNL d   1      -0.240  -0.904   0.585  0.00  0.00     0.162 A 
ATOM      4  C3  UNL d   1      -0.280   0.299  -0.120  0.00  0.00    -0.034 A 
ATOM      5  C4  UNL d   1       0.848   1.122  -0.125  0.00  0.00     0.162 A 
ATOM      6  C5  UNL d   1       1.996   0.743   0.562  0.00  0.00     0.062 A 
ATOM      7  F   UNL d   1       3.075   1.540   0.551  0.00  0.00    -0.097 F 
ATOM      8  F1  UNL d   1       0.844   2.286  -0.792  0.00  0.00    -0.096 F 
ATOM      9  I   UNL d   1      -2.000   0.863  -1.147  0.00  0.00    -0.060 I 
ATOM     10  F2  UNL d   1      -1.305  -1.719   0.612  0.00  0.00    -0.096 F 
ATOM     11  F3  UNL d   1       0.940  -2.437   1.945  0.00  0.00    -0.097 F 
ATOM     12  F4  UNL d   1       3.136  -0.818   1.922  0.00  0.00    -0.092 F 
ENDROOT
TORSDOF 0
ENDMDL
