MODEL 1
REMARK minimizedAffinity -2.90114498
REMARK minimizedRMSD -1
REMARK  0 active torsions:
REMARK  status: ('A' for Active; 'I' for Inactive)
ROOT
ATOM      1  C   UNL d   1       2.196  -0.965   0.680  0.00  0.00     0.124 A 
ATOM      2  C1  UNL d   1       0.943  -1.473   0.991  0.00  0.00     0.062 A 
ATOM      3  C2  UNL d   1      -0.188  -1.001   0.331  0.00  0.00     0.162 A 
ATOM      4  C3  UNL d   1      -0.071  -0.015  -0.649  0.00  0.00    -0.034 A 
ATOM      5  C4  UNL d   1       1.193   0.492  -0.956  0.00  0.00     0.162 A 
ATOM      6  C5  UNL d   1       2.320   0.017  -0.293  0.00  0.00     0.062 A 
ATOM      7  F   UNL d   1       3.530   0.510  -0.595  0.00  0.00    -0.097 F 
ATOM      8  F1  UNL d   1       1.342   1.441  -1.893  0.00  0.00    -0.096 F 
ATOM      9  I   UNL d   1      -1.759   0.693  -1.638  0.00  0.00    -0.060 I 
ATOM     10  F2  UNL d   1      -1.386  -1.511   0.652  0.00  0.00    -0.096 F 
ATOM     11  F3  UNL d   1       0.820  -2.421   1.931  0.00  0.00    -0.097 F 
ATOM     12  F4  UNL d   1       3.282  -1.420   1.317  0.00  0.00    -0.092 F 
ENDROOT
TORSDOF 0
ENDMDL
