MODEL 1
REMARK minimizedAffinity -1.43618965
REMARK minimizedRMSD -1
REMARK  0 active torsions:
REMARK  status: ('A' for Active; 'I' for Inactive)
ROOT
ATOM      1  C   UNL d   1       4.027   2.475   2.251  0.00  0.00     0.020 A 
ATOM      2  C1  UNL d   1       2.940   1.684   2.621  0.00  0.00     0.020 A 
ATOM      3  C2  UNL d   1       2.026   1.257   1.654  0.00  0.00     0.034 A 
ATOM      4  C3  UNL d   1       2.198   1.621   0.314  0.00  0.00     0.017 A 
ATOM      5  C4  UNL d   1       3.290   2.415  -0.056  0.00  0.00     0.017 A 
ATOM      6  C5  UNL d   1       4.201   2.840   0.916  0.00  0.00     0.034 A 
ATOM      7 Cl   UNL d   1       3.569   2.905  -1.690  0.00  0.00    -0.070 Cl
ATOM      8 Cl1  UNL d   1       1.030   1.058  -0.828  0.00  0.00    -0.070 Cl
ENDROOT
TORSDOF 0
ENDMDL
