MODEL 1
REMARK minimizedAffinity 1.22189009
REMARK minimizedRMSD -1
REMARK  0 active torsions:
REMARK  status: ('A' for Active; 'I' for Inactive)
ROOT
ATOM      1  C   UNL d   1       1.635   0.031   0.167  0.00  0.00     0.020 A 
ATOM      2  C1  UNL d   1       0.691  -0.647   0.938  0.00  0.00     0.020 A 
ATOM      3  C2  UNL d   1      -0.599  -0.848   0.444  0.00  0.00     0.034 A 
ATOM      4  C3  UNL d   1      -0.949  -0.372  -0.824  0.00  0.00     0.017 A 
ATOM      5  C4  UNL d   1      -0.001   0.308  -1.598  0.00  0.00     0.017 A 
ATOM      6  C5  UNL d   1       1.289   0.507  -1.098  0.00  0.00     0.034 A 
ATOM      7 Cl   UNL d   1      -0.359   0.925  -3.172  0.00  0.00    -0.070 Cl
ATOM      8 Cl1  UNL d   1      -2.563  -0.657  -1.372  0.00  0.00    -0.070 Cl
ENDROOT
TORSDOF 0
ENDMDL
