MODEL 1
REMARK minimizedAffinity -3.8152976
REMARK minimizedRMSD -1
REMARK  0 active torsions:
REMARK  status: ('A' for Active; 'I' for Inactive)
ROOT
ATOM      1  C   UNL d   1      -0.208   0.505  -1.618  0.00  0.00     0.020 A 
ATOM      2  C1  UNL d   1       0.879   0.141  -0.824  0.00  0.00     0.020 A 
ATOM      3  C2  UNL d   1       0.689  -0.701   0.274  0.00  0.00     0.034 A 
ATOM      4  C3  UNL d   1      -0.589  -1.182   0.580  0.00  0.00     0.017 A 
ATOM      5  C4  UNL d   1      -1.679  -0.816  -0.218  0.00  0.00     0.017 A 
ATOM      6  C5  UNL d   1      -1.483   0.027  -1.316  0.00  0.00     0.034 A 
ATOM      7 Cl   UNL d   1      -3.285  -1.369   0.097  0.00  0.00    -0.070 Cl
ATOM      8 Cl1  UNL d   1      -0.750  -2.220   1.952  0.00  0.00    -0.070 Cl
ENDROOT
TORSDOF 0
ENDMDL
