MODEL 1
REMARK minimizedAffinity -2.61865497
REMARK minimizedRMSD -1
REMARK  0 active torsions:
REMARK  status: ('A' for Active; 'I' for Inactive)
ROOT
ATOM      1  C   UNL d   1       3.333   3.068   1.259  0.00  0.00     0.020 A 
ATOM      2  C1  UNL d   1       2.275   3.724   0.630  0.00  0.00     0.020 A 
ATOM      3  C2  UNL d   1       1.257   2.984   0.024  0.00  0.00     0.034 A 
ATOM      4  C3  UNL d   1       1.294   1.585   0.046  0.00  0.00     0.017 A 
ATOM      5  C4  UNL d   1       2.356   0.928   0.679  0.00  0.00     0.017 A 
ATOM      6  C5  UNL d   1       3.373   1.674   1.284  0.00  0.00     0.034 A 
ATOM      7 Cl   UNL d   1       2.471  -0.795   0.747  0.00  0.00    -0.070 Cl
ATOM      8 Cl1  UNL d   1       0.002   0.735  -0.722  0.00  0.00    -0.070 Cl
ENDROOT
TORSDOF 0
ENDMDL
