MODEL 1
REMARK minimizedAffinity -1.19400346
REMARK minimizedRMSD -1
REMARK  0 active torsions:
REMARK  status: ('A' for Active; 'I' for Inactive)
ROOT
ATOM      1  C   UNL d   1       0.476   1.447  -1.109  0.00  0.00     0.020 A 
ATOM      2  C1  UNL d   1       1.266   0.928  -0.084  0.00  0.00     0.020 A 
ATOM      3  C2  UNL d   1       0.881  -0.247   0.567  0.00  0.00     0.034 A 
ATOM      4  C3  UNL d   1      -0.296  -0.906   0.193  0.00  0.00     0.017 A 
ATOM      5  C4  UNL d   1      -1.087  -0.383  -0.836  0.00  0.00     0.017 A 
ATOM      6  C5  UNL d   1      -0.698   0.793  -1.484  0.00  0.00     0.034 A 
ATOM      7 Cl   UNL d   1      -2.553  -1.139  -1.353  0.00  0.00    -0.070 Cl
ATOM      8 Cl1  UNL d   1      -0.710  -2.353   1.040  0.00  0.00    -0.070 Cl
ENDROOT
TORSDOF 0
ENDMDL
