MODEL 1
REMARK minimizedAffinity -2.27737808
REMARK minimizedRMSD -1
REMARK  0 active torsions:
REMARK  status: ('A' for Active; 'I' for Inactive)
ROOT
ATOM      1  C   UNL d   1      -1.501   0.594  -2.106  0.00  0.00     0.020 A 
ATOM      2  C1  UNL d   1      -1.945  -0.683  -1.765  0.00  0.00     0.020 A 
ATOM      3  C2  UNL d   1      -1.332  -1.381  -0.722  0.00  0.00     0.034 A 
ATOM      4  C3  UNL d   1      -0.271  -0.802  -0.016  0.00  0.00     0.017 A 
ATOM      5  C4  UNL d   1       0.174   0.479  -0.359  0.00  0.00     0.017 A 
ATOM      6  C5  UNL d   1      -0.443   1.174  -1.404  0.00  0.00     0.034 A 
ATOM      7 Cl   UNL d   1       1.478   1.259   0.467  0.00  0.00    -0.070 Cl
ATOM      8 Cl1  UNL d   1       0.439  -1.722   1.263  0.00  0.00    -0.070 Cl
ENDROOT
TORSDOF 0
ENDMDL
