MODEL 1
REMARK minimizedAffinity 4.93464565
REMARK minimizedRMSD -1
REMARK  0 active torsions:
REMARK  status: ('A' for Active; 'I' for Inactive)
ROOT
ATOM      1  C   UNL d   1      -2.254  -2.333  -1.213  0.00  0.00     0.020 A 
ATOM      2  C1  UNL d   1      -1.612  -2.345  -2.451  0.00  0.00     0.020 A 
ATOM      3  C2  UNL d   1      -1.372  -1.145  -3.124  0.00  0.00     0.034 A 
ATOM      4  C3  UNL d   1      -1.773   0.071  -2.559  0.00  0.00     0.017 A 
ATOM      5  C4  UNL d   1      -2.417   0.082  -1.317  0.00  0.00     0.017 A 
ATOM      6  C5  UNL d   1      -2.656  -1.122  -0.648  0.00  0.00     0.034 A 
ATOM      7 Cl   UNL d   1      -2.942   1.543  -0.557  0.00  0.00    -0.070 Cl
ATOM      8 Cl1  UNL d   1      -1.443   1.517  -3.447  0.00  0.00    -0.070 Cl
ENDROOT
TORSDOF 0
ENDMDL
