MODEL 1
REMARK minimizedAffinity 1.44787741
REMARK minimizedRMSD -1
REMARK  0 active torsions:
REMARK  status: ('A' for Active; 'I' for Inactive)
ROOT
ATOM      1  C   UNL d   1      -1.177   0.750  -2.108  0.00  0.00     0.020 A 
ATOM      2  C1  UNL d   1      -2.162  -0.117  -1.637  0.00  0.00     0.020 A 
ATOM      3  C2  UNL d   1      -1.895  -0.952  -0.550  0.00  0.00     0.034 A 
ATOM      4  C3  UNL d   1      -0.640  -0.922   0.069  0.00  0.00     0.017 A 
ATOM      5  C4  UNL d   1       0.348  -0.051  -0.404  0.00  0.00     0.017 A 
ATOM      6  C5  UNL d   1       0.075   0.783  -1.493  0.00  0.00     0.034 A 
ATOM      7 Cl   UNL d   1       1.920   0.042   0.308  0.00  0.00    -0.070 Cl
ATOM      8 Cl1  UNL d   1      -0.379  -1.982   1.408  0.00  0.00    -0.070 Cl
ENDROOT
TORSDOF 0
ENDMDL
