MODEL 1
REMARK minimizedAffinity -0.883881509
REMARK minimizedRMSD -1
REMARK  0 active torsions:
REMARK  status: ('A' for Active; 'I' for Inactive)
ROOT
ATOM      1  C   UNL d   1      -2.402  -0.928  -1.507  0.00  0.00     0.020 A 
ATOM      2  C1  UNL d   1      -1.789   0.118  -2.195  0.00  0.00     0.020 A 
ATOM      3  C2  UNL d   1      -0.567   0.626  -1.749  0.00  0.00     0.034 A 
ATOM      4  C3  UNL d   1       0.046   0.087  -0.612  0.00  0.00     0.017 A 
ATOM      5  C4  UNL d   1      -0.570  -0.963   0.078  0.00  0.00     0.017 A 
ATOM      6  C5  UNL d   1      -1.794  -1.468  -0.373  0.00  0.00     0.034 A 
ATOM      7 Cl   UNL d   1       0.126  -1.680   1.488  0.00  0.00    -0.070 Cl
ATOM      8 Cl1  UNL d   1       1.557   0.763  -0.118  0.00  0.00    -0.070 Cl
ENDROOT
TORSDOF 0
ENDMDL
