MODEL 1
REMARK minimizedAffinity -2.41884542
REMARK minimizedRMSD -1
REMARK  0 active torsions:
REMARK  status: ('A' for Active; 'I' for Inactive)
ROOT
ATOM      1  C   UNL d   1       2.078   0.099   0.974  0.00  0.00     0.020 A 
ATOM      2  C1  UNL d   1       1.743   0.653   2.209  0.00  0.00     0.020 A 
ATOM      3  C2  UNL d   1       2.088   1.975   2.498  0.00  0.00     0.034 A 
ATOM      4  C3  UNL d   1       2.771   2.747   1.552  0.00  0.00     0.017 A 
ATOM      5  C4  UNL d   1       3.107   2.191   0.313  0.00  0.00     0.017 A 
ATOM      6  C5  UNL d   1       2.759   0.867   0.028  0.00  0.00     0.034 A 
ATOM      7 Cl   UNL d   1       3.949   3.082  -0.906  0.00  0.00    -0.070 Cl
ATOM      8 Cl1  UNL d   1       3.166   4.375   1.977  0.00  0.00    -0.070 Cl
ENDROOT
TORSDOF 0
ENDMDL
