MODEL 1
REMARK minimizedAffinity -3.26842761
REMARK minimizedRMSD -1
REMARK  0 active torsions:
REMARK  status: ('A' for Active; 'I' for Inactive)
ROOT
ATOM      1  C   UNL d   1       0.111   0.964  -0.937  0.00  0.00     0.020 A 
ATOM      2  C1  UNL d   1       1.010   0.365  -0.055  0.00  0.00     0.020 A 
ATOM      3  C2  UNL d   1       0.636  -0.778   0.655  0.00  0.00     0.034 A 
ATOM      4  C3  UNL d   1      -0.641  -1.325   0.485  0.00  0.00     0.017 A 
ATOM      5  C4  UNL d   1      -1.543  -0.724  -0.400  0.00  0.00     0.017 A 
ATOM      6  C5  UNL d   1      -1.163   0.421  -1.109  0.00  0.00     0.034 A 
ATOM      7 Cl   UNL d   1      -3.135  -1.341  -0.663  0.00  0.00    -0.070 Cl
ATOM      8 Cl1  UNL d   1      -1.036  -2.740   1.395  0.00  0.00    -0.070 Cl
ENDROOT
TORSDOF 0
ENDMDL
