MODEL 1
REMARK minimizedAffinity -3.77244234
REMARK minimizedRMSD -1
REMARK  0 active torsions:
REMARK  status: ('A' for Active; 'I' for Inactive)
ROOT
ATOM      1  C   UNL d   1       1.889   0.616   0.168  0.00  0.00     0.020 A 
ATOM      2  C1  UNL d   1       1.131  -0.212   0.996  0.00  0.00     0.020 A 
ATOM      3  C2  UNL d   1      -0.146  -0.615   0.601  0.00  0.00     0.034 A 
ATOM      4  C3  UNL d   1      -0.670  -0.191  -0.625  0.00  0.00     0.017 A 
ATOM      5  C4  UNL d   1       0.091   0.640  -1.456  0.00  0.00     0.017 A 
ATOM      6  C5  UNL d   1       1.369   1.040  -1.056  0.00  0.00     0.034 A 
ATOM      7 Cl   UNL d   1      -0.488   1.204  -2.984  0.00  0.00    -0.070 Cl
ATOM      8 Cl1  UNL d   1      -2.256  -0.729  -1.050  0.00  0.00    -0.070 Cl
ENDROOT
TORSDOF 0
ENDMDL
