MODEL 1
REMARK minimizedAffinity -2.6659615
REMARK minimizedRMSD -1
REMARK  0 active torsions:
REMARK  status: ('A' for Active; 'I' for Inactive)
ROOT
ATOM      1  C   UNL d   1      -2.272  -0.201  -1.422  0.00  0.00     0.020 A 
ATOM      2  C1  UNL d   1      -1.348   0.758  -1.833  0.00  0.00     0.020 A 
ATOM      3  C2  UNL d   1      -0.137   0.897  -1.152  0.00  0.00     0.034 A 
ATOM      4  C3  UNL d   1       0.153   0.076  -0.056  0.00  0.00     0.017 A 
ATOM      5  C4  UNL d   1      -0.776  -0.887   0.355  0.00  0.00     0.017 A 
ATOM      6  C5  UNL d   1      -1.987  -1.022  -0.331  0.00  0.00     0.034 A 
ATOM      7 Cl   UNL d   1      -0.489  -1.937   1.698  0.00  0.00    -0.070 Cl
ATOM      8 Cl1  UNL d   1       1.670   0.303   0.739  0.00  0.00    -0.070 Cl
ENDROOT
TORSDOF 0
ENDMDL
