MODEL 1
REMARK minimizedAffinity -1.49905324
REMARK minimizedRMSD -1
REMARK  0 active torsions:
REMARK  status: ('A' for Active; 'I' for Inactive)
ROOT
ATOM      1  C   UNL d   1      -1.946  -0.437  -1.741  0.00  0.00     0.020 A 
ATOM      2  C1  UNL d   1      -1.175   0.687  -2.035  0.00  0.00     0.020 A 
ATOM      3  C2  UNL d   1      -0.062   0.994  -1.250  0.00  0.00     0.034 A 
ATOM      4  C3  UNL d   1       0.283   0.178  -0.166  0.00  0.00     0.017 A 
ATOM      5  C4  UNL d   1      -0.492  -0.950   0.128  0.00  0.00     0.017 A 
ATOM      6  C5  UNL d   1      -1.605  -1.254  -0.662  0.00  0.00     0.034 A 
ATOM      7 Cl   UNL d   1      -0.129  -2.005   1.448  0.00  0.00    -0.070 Cl
ATOM      8 Cl1  UNL d   1       1.672   0.618   0.762  0.00  0.00    -0.070 Cl
ENDROOT
TORSDOF 0
ENDMDL
