MODEL 1
REMARK minimizedAffinity -0.82173568
REMARK minimizedRMSD -1
REMARK  0 active torsions:
REMARK  status: ('A' for Active; 'I' for Inactive)
ROOT
ATOM      1  C   UNL d   1      -0.214   0.725  -1.033  0.00  0.00     0.020 A 
ATOM      2  C1  UNL d   1       0.732   0.400  -0.062  0.00  0.00     0.020 A 
ATOM      3  C2  UNL d   1       0.510  -0.679   0.796  0.00  0.00     0.034 A 
ATOM      4  C3  UNL d   1      -0.662  -1.436   0.686  0.00  0.00     0.017 A 
ATOM      5  C4  UNL d   1      -1.612  -1.109  -0.289  0.00  0.00     0.017 A 
ATOM      6  C5  UNL d   1      -1.384  -0.028  -1.145  0.00  0.00     0.034 A 
ATOM      7 Cl   UNL d   1      -3.082  -1.996  -0.486  0.00  0.00    -0.070 Cl
ATOM      8 Cl1  UNL d   1      -0.872  -2.757   1.780  0.00  0.00    -0.070 Cl
ENDROOT
TORSDOF 0
ENDMDL
