MODEL 1
REMARK minimizedAffinity -0.523105621
REMARK minimizedRMSD -1
REMARK  0 active torsions:
REMARK  status: ('A' for Active; 'I' for Inactive)
ROOT
ATOM      1  C   UNL d   1       3.889   3.682  -1.578  0.00  0.00     0.020 A 
ATOM      2  C1  UNL d   1       3.886   4.592  -0.521  0.00  0.00     0.020 A 
ATOM      3  C2  UNL d   1       3.336   4.230   0.710  0.00  0.00     0.034 A 
ATOM      4  C3  UNL d   1       2.786   2.955   0.888  0.00  0.00     0.017 A 
ATOM      5  C4  UNL d   1       2.789   2.043  -0.173  0.00  0.00     0.017 A 
ATOM      6  C5  UNL d   1       3.342   2.410  -1.404  0.00  0.00     0.034 A 
ATOM      7 Cl   UNL d   1       2.129   0.452  -0.029  0.00  0.00    -0.070 Cl
ATOM      8 Cl1  UNL d   1       2.123   2.575   2.438  0.00  0.00    -0.070 Cl
ENDROOT
TORSDOF 0
ENDMDL
