MODEL 1
REMARK minimizedAffinity 0.847365081
REMARK minimizedRMSD -1
REMARK  1 active torsions:
REMARK  status: ('A' for Active; 'I' for Inactive)
REMARK    1  A    between atoms: C3_4  and  O_7 
ROOT
ATOM      1  C   UNL d   1       5.431  -3.420  -4.716  0.00  0.00    -0.033 A 
ATOM      2  C1  UNL d   1       5.843  -2.415  -3.838  0.00  0.00     0.039 A 
ATOM      3  C2  UNL d   1       4.940  -1.876  -2.919  0.00  0.00    -0.080 A 
ATOM      4  C3  UNL d   1       3.632  -2.349  -2.888  0.00  0.00     0.150 A 
ATOM      5  C4  UNL d   1       3.216  -3.353  -3.757  0.00  0.00    -0.007 A 
ATOM      6  C5  UNL d   1       4.118  -3.890  -4.674  0.00  0.00     0.039 A 
ENDROOT
BRANCH   4   7
ATOM      7  O   UNL d   1       2.714  -1.850  -2.012  0.00  0.00    -0.526 OA
ATOM      8  H5  UNL d   1       3.135  -1.144  -1.494  0.00  0.00     0.418 HD
ENDBRANCH   4   7
TORSDOF 1
ENDMDL
