MODEL 1
REMARK minimizedAffinity -1.47545135
REMARK minimizedRMSD -1
REMARK  1 active torsions:
REMARK  status: ('A' for Active; 'I' for Inactive)
REMARK    1  A    between atoms: C3_4  and  O_7 
ROOT
ATOM      1  C   UNL d   1      -0.463   0.232  -0.451  0.00  0.00    -0.033 A 
ATOM      2  C1  UNL d   1       0.438  -0.724  -0.924  0.00  0.00     0.039 A 
ATOM      3  C2  UNL d   1       0.844  -0.703  -2.259  0.00  0.00    -0.080 A 
ATOM      4  C3  UNL d   1       0.342   0.278  -3.110  0.00  0.00     0.150 A 
ATOM      5  C4  UNL d   1      -0.553   1.236  -2.645  0.00  0.00    -0.007 A 
ATOM      6  C5  UNL d   1      -0.957   1.213  -1.311  0.00  0.00     0.039 A 
ENDROOT
BRANCH   4   7
ATOM      7  O   UNL d   1       0.705   0.336  -4.423  0.00  0.00    -0.526 OA
ATOM      8  H5  UNL d   1       1.306  -0.405  -4.610  0.00  0.00     0.418 HD
ENDBRANCH   4   7
TORSDOF 1
ENDMDL
