MODEL 1
REMARK minimizedAffinity 7.67539692
REMARK minimizedRMSD -1
REMARK  1 active torsions:
REMARK  status: ('A' for Active; 'I' for Inactive)
REMARK    1  A    between atoms: C3_4  and  O_7 
ROOT
ATOM      1  C   UNL d   1       0.370  -2.320   5.998  0.00  0.00    -0.033 A 
ATOM      2  C1  UNL d   1      -0.852  -1.646   6.000  0.00  0.00     0.039 A 
ATOM      3  C2  UNL d   1      -1.019  -0.496   5.226  0.00  0.00    -0.080 A 
ATOM      4  C3  UNL d   1       0.044  -0.031   4.456  0.00  0.00     0.150 A 
ATOM      5  C4  UNL d   1       1.263  -0.700   4.446  0.00  0.00    -0.007 A 
ATOM      6  C5  UNL d   1       1.428  -1.848   5.220  0.00  0.00     0.039 A 
ENDROOT
BRANCH   4   7
ATOM      7  O   UNL d   1      -0.069   1.090   3.688  0.00  0.00    -0.526 OA
ATOM      8  H5  UNL d   1      -0.958   1.462   3.817  0.00  0.00     0.418 HD
ENDBRANCH   4   7
TORSDOF 1
ENDMDL
