MODEL 1
REMARK minimizedAffinity 5.16480637
REMARK minimizedRMSD -1
REMARK  1 active torsions:
REMARK  status: ('A' for Active; 'I' for Inactive)
REMARK    1  A    between atoms: C3_4  and  O_7 
ROOT
ATOM      1  C   UNL d   1       5.816  -2.191  -3.759  0.00  0.00    -0.033 A 
ATOM      2  C1  UNL d   1       5.197  -2.191  -2.508  0.00  0.00     0.039 A 
ATOM      3  C2  UNL d   1       3.873  -1.765  -2.383  0.00  0.00    -0.080 A 
ATOM      4  C3  UNL d   1       3.181  -1.344  -3.514  0.00  0.00     0.150 A 
ATOM      5  C4  UNL d   1       3.790  -1.346  -4.765  0.00  0.00    -0.007 A 
ATOM      6  C5  UNL d   1       5.112  -1.771  -4.888  0.00  0.00     0.039 A 
ENDROOT
BRANCH   4   7
ATOM      7  O   UNL d   1       1.889  -0.916  -3.441  0.00  0.00    -0.526 OA
ATOM      8  H5  UNL d   1       1.608  -0.942  -2.511  0.00  0.00     0.418 HD
ENDBRANCH   4   7
TORSDOF 1
ENDMDL
