MODEL 1
REMARK minimizedAffinity -3.71447635
REMARK minimizedRMSD -1
REMARK  1 active torsions:
REMARK  status: ('A' for Active; 'I' for Inactive)
REMARK    1  A    between atoms: C3_4  and  O_7 
ROOT
ATOM      1  C   UNL d   1       0.861   2.689   2.292  0.00  0.00    -0.033 A 
ATOM      2  C1  UNL d   1       1.309   1.596   3.036  0.00  0.00     0.039 A 
ATOM      3  C2  UNL d   1       1.533   0.368   2.409  0.00  0.00    -0.080 A 
ATOM      4  C3  UNL d   1       1.307   0.248   1.041  0.00  0.00     0.150 A 
ATOM      5  C4  UNL d   1       0.864   1.334   0.293  0.00  0.00    -0.007 A 
ATOM      6  C5  UNL d   1       0.640   2.559   0.921  0.00  0.00     0.039 A 
ENDROOT
BRANCH   4   7
ATOM      7  O   UNL d   1       1.507  -0.931   0.386  0.00  0.00    -0.526 OA
ATOM      8  H5  UNL d   1       1.784  -1.600   1.035  0.00  0.00     0.418 HD
ENDBRANCH   4   7
TORSDOF 1
ENDMDL
