MODEL 1
REMARK minimizedAffinity -3.49742794
REMARK minimizedRMSD -1
REMARK  1 active torsions:
REMARK  status: ('A' for Active; 'I' for Inactive)
REMARK    1  A    between atoms: C3_4  and  O_7 
ROOT
ATOM      1  C   UNL d   1       0.293   2.148   2.878  0.00  0.00    -0.033 A 
ATOM      2  C1  UNL d   1       0.666   0.879   3.324  0.00  0.00     0.039 A 
ATOM      3  C2  UNL d   1       1.161  -0.063   2.419  0.00  0.00    -0.080 A 
ATOM      4  C3  UNL d   1       1.278   0.278   1.074  0.00  0.00     0.150 A 
ATOM      5  C4  UNL d   1       0.911   1.542   0.624  0.00  0.00    -0.007 A 
ATOM      6  C5  UNL d   1       0.416   2.480   1.529  0.00  0.00     0.039 A 
ENDROOT
BRANCH   4   7
ATOM      7  O   UNL d   1       1.750  -0.609   0.153  0.00  0.00    -0.526 OA
ATOM      8  H5  UNL d   1       1.937  -1.450   0.603  0.00  0.00     0.418 HD
ENDBRANCH   4   7
TORSDOF 1
ENDMDL
