MODEL 1
REMARK minimizedAffinity -5.69563055
REMARK minimizedRMSD -1
REMARK  1 active torsions:
REMARK  status: ('A' for Active; 'I' for Inactive)
REMARK    1  A    between atoms: C1_2  and  C2_3 
ROOT
ATOM      1  C2  UNL d   1      -1.023  -0.535  -0.138  0.00  0.00    -0.077 A 
ATOM      2  C3  UNL d   1      -0.235  -1.200   0.813  0.00  0.00     0.002 A 
ATOM      3  C4  UNL d   1      -0.753  -2.283   1.527  0.00  0.00     0.002 A 
ATOM      4  C5  UNL d   1      -2.058  -2.713   1.294  0.00  0.00    -0.004 A 
ATOM      5  C6  UNL d   1      -2.850  -2.057   0.352  0.00  0.00     0.002 A 
ATOM      6  C7  UNL d   1      -2.334  -0.974  -0.361  0.00  0.00     0.002 A 
ENDROOT
BRANCH   1   7
ATOM      7  C1  UNL d   1      -0.450   0.601  -0.943  0.00  0.00     0.055 C 
ATOM      8  C   UNL d   1      -1.151   0.736  -2.287  0.00  0.00     0.019 C 
ENDBRANCH   1   7
TORSDOF 1
ENDMDL
