MODEL 1
REMARK minimizedAffinity -3.85387564
REMARK minimizedRMSD -1
REMARK  1 active torsions:
REMARK  status: ('A' for Active; 'I' for Inactive)
REMARK    1  A    between atoms: C1_2  and  C2_3 
ROOT
ATOM      1  C2  UNL d   1       0.042  -0.146   0.177  0.00  0.00    -0.077 A 
ATOM      2  C3  UNL d   1      -1.140  -0.592   0.785  0.00  0.00     0.002 A 
ATOM      3  C4  UNL d   1      -2.288  -0.810   0.021  0.00  0.00     0.002 A 
ATOM      4  C5  UNL d   1      -2.265  -0.589  -1.354  0.00  0.00    -0.004 A 
ATOM      5  C6  UNL d   1      -1.095  -0.142  -1.968  0.00  0.00     0.002 A 
ATOM      6  C7  UNL d   1       0.053   0.077  -1.206  0.00  0.00     0.002 A 
ENDROOT
BRANCH   1   7
ATOM      7  C1  UNL d   1       1.296   0.043   0.991  0.00  0.00     0.055 C 
ATOM      8  C   UNL d   1       1.983   1.357   0.652  0.00  0.00     0.019 C 
ENDBRANCH   1   7
TORSDOF 1
ENDMDL
