MODEL 1
REMARK minimizedAffinity 1.74430513
REMARK minimizedRMSD -1
REMARK  1 active torsions:
REMARK  status: ('A' for Active; 'I' for Inactive)
REMARK    1  A    between atoms: C1_2  and  C2_3 
ROOT
ATOM      1  C2  UNL d   1      -1.347   0.091  -1.561  0.00  0.00    -0.077 A 
ATOM      2  C3  UNL d   1      -0.759   0.467  -2.777  0.00  0.00     0.002 A 
ATOM      3  C4  UNL d   1       0.621   0.360  -2.958  0.00  0.00     0.002 A 
ATOM      4  C5  UNL d   1       1.424  -0.127  -1.929  0.00  0.00    -0.004 A 
ATOM      5  C6  UNL d   1       0.850  -0.502  -0.715  0.00  0.00     0.002 A 
ATOM      6  C7  UNL d   1      -0.529  -0.395  -0.532  0.00  0.00     0.002 A 
ENDROOT
BRANCH   1   7
ATOM      7  C1  UNL d   1      -2.841   0.159  -1.381  0.00  0.00     0.055 C 
ATOM      8  C   UNL d   1      -3.212   0.933  -0.125  0.00  0.00     0.019 C 
ENDBRANCH   1   7
TORSDOF 1
ENDMDL
