MODEL 1
REMARK minimizedAffinity -4.54579401
REMARK minimizedRMSD -1
REMARK  1 active torsions:
REMARK  status: ('A' for Active; 'I' for Inactive)
REMARK    1  A    between atoms: C1_2  and  C2_3 
ROOT
ATOM      1  C2  UNL d   1       3.215   3.854  -0.749  0.00  0.00    -0.077 A 
ATOM      2  C3  UNL d   1       3.228   4.483   0.504  0.00  0.00     0.002 A 
ATOM      3  C4  UNL d   1       2.966   3.751   1.664  0.00  0.00     0.002 A 
ATOM      4  C5  UNL d   1       2.692   2.388   1.584  0.00  0.00    -0.004 A 
ATOM      5  C6  UNL d   1       2.675   1.753   0.342  0.00  0.00     0.002 A 
ATOM      6  C7  UNL d   1       2.935   2.483  -0.819  0.00  0.00     0.002 A 
ENDROOT
BRANCH   1   7
ATOM      7  C1  UNL d   1       3.546   4.630  -1.996  0.00  0.00     0.055 C 
ATOM      8  C   UNL d   1       4.640   3.944  -2.801  0.00  0.00     0.019 C 
ENDBRANCH   1   7
TORSDOF 1
ENDMDL
