MODEL 1
REMARK minimizedAffinity -4.92828274
REMARK minimizedRMSD -1
REMARK  1 active torsions:
REMARK  status: ('A' for Active; 'I' for Inactive)
REMARK    1  A    between atoms: C1_2  and  C2_3 
ROOT
ATOM      1  C2  UNL d   1       0.578  -0.672   0.027  0.00  0.00    -0.077 A 
ATOM      2  C3  UNL d   1      -0.169  -1.588   0.780  0.00  0.00     0.002 A 
ATOM      3  C4  UNL d   1      -1.499  -1.858   0.449  0.00  0.00     0.002 A 
ATOM      4  C5  UNL d   1      -2.091  -1.218  -0.637  0.00  0.00    -0.004 A 
ATOM      5  C6  UNL d   1      -1.357  -0.303  -1.392  0.00  0.00     0.002 A 
ATOM      6  C7  UNL d   1      -0.029  -0.032  -1.061  0.00  0.00     0.002 A 
ENDROOT
BRANCH   1   7
ATOM      7  C1  UNL d   1       2.026  -0.417   0.353  0.00  0.00     0.055 C 
ATOM      8  C   UNL d   1       2.415   1.024   0.055  0.00  0.00     0.019 C 
ENDBRANCH   1   7
TORSDOF 1
ENDMDL
