MODEL 1
REMARK minimizedAffinity -4.43369389
REMARK minimizedRMSD -1
REMARK  1 active torsions:
REMARK  status: ('A' for Active; 'I' for Inactive)
REMARK    1  A    between atoms: C1_2  and  C2_3 
ROOT
ATOM      1  C2  UNL d   1       0.155  -0.054  -0.086  0.00  0.00    -0.077 A 
ATOM      2  C3  UNL d   1      -0.841  -0.747   0.616  0.00  0.00     0.002 A 
ATOM      3  C4  UNL d   1      -2.148  -0.794   0.126  0.00  0.00     0.002 A 
ATOM      4  C5  UNL d   1      -2.469  -0.155  -1.070  0.00  0.00    -0.004 A 
ATOM      5  C6  UNL d   1      -1.486   0.539  -1.774  0.00  0.00     0.002 A 
ATOM      6  C7  UNL d   1      -0.180   0.588  -1.285  0.00  0.00     0.002 A 
ENDROOT
BRANCH   1   7
ATOM      7  C1  UNL d   1       1.575  -0.044   0.415  0.00  0.00     0.055 C 
ATOM      8  C   UNL d   1       2.191   1.344   0.305  0.00  0.00     0.019 C 
ENDBRANCH   1   7
TORSDOF 1
ENDMDL
