MODEL 1
REMARK minimizedAffinity -0.818603992
REMARK minimizedRMSD -1
REMARK  1 active torsions:
REMARK  status: ('A' for Active; 'I' for Inactive)
REMARK    1  A    between atoms: C1_2  and  C2_3 
ROOT
ATOM      1  C2  UNL d   1       1.927   1.379   0.546  0.00  0.00    -0.077 A 
ATOM      2  C3  UNL d   1       1.911   1.835   1.872  0.00  0.00     0.002 A 
ATOM      3  C4  UNL d   1       2.572   3.014   2.222  0.00  0.00     0.002 A 
ATOM      4  C5  UNL d   1       3.250   3.749   1.252  0.00  0.00    -0.004 A 
ATOM      5  C6  UNL d   1       3.275   3.303  -0.069  0.00  0.00     0.002 A 
ATOM      6  C7  UNL d   1       2.615   2.124  -0.420  0.00  0.00     0.002 A 
ENDROOT
BRANCH   1   7
ATOM      7  C1  UNL d   1       1.174   0.134   0.157  0.00  0.00     0.055 C 
ATOM      8  C   UNL d   1       0.142   0.426  -0.922  0.00  0.00     0.019 C 
ENDBRANCH   1   7
TORSDOF 1
ENDMDL
