MODEL 1
REMARK minimizedAffinity -4.01096058
REMARK minimizedRMSD -1
REMARK  1 active torsions:
REMARK  status: ('A' for Active; 'I' for Inactive)
REMARK    1  A    between atoms: C1_2  and  C2_3 
ROOT
ATOM      1  C2  UNL d   1       0.033  -0.034  -0.262  0.00  0.00    -0.077 A 
ATOM      2  C3  UNL d   1      -0.602  -0.046  -1.512  0.00  0.00     0.002 A 
ATOM      3  C4  UNL d   1      -1.970  -0.313  -1.606  0.00  0.00     0.002 A 
ATOM      4  C5  UNL d   1      -2.713  -0.565  -0.455  0.00  0.00    -0.004 A 
ATOM      5  C6  UNL d   1      -2.090  -0.556   0.793  0.00  0.00     0.002 A 
ATOM      6  C7  UNL d   1      -0.723  -0.291   0.888  0.00  0.00     0.002 A 
ENDROOT
BRANCH   1   7
ATOM      7  C1  UNL d   1       1.498   0.302  -0.154  0.00  0.00     0.055 C 
ATOM      8  C   UNL d   1       1.710   1.629   0.560  0.00  0.00     0.019 C 
ENDBRANCH   1   7
TORSDOF 1
ENDMDL
