MODEL 1
REMARK minimizedAffinity -5.58582449
REMARK minimizedRMSD -1
REMARK  1 active torsions:
REMARK  status: ('A' for Active; 'I' for Inactive)
REMARK    1  A    between atoms: C1_2  and  C2_3 
ROOT
ATOM      1  C2  UNL d   1      -0.082   0.047   0.024  0.00  0.00    -0.077 A 
ATOM      2  C3  UNL d   1      -0.536  -0.613   1.175  0.00  0.00     0.002 A 
ATOM      3  C4  UNL d   1      -1.864  -1.031   1.272  0.00  0.00     0.002 A 
ATOM      4  C5  UNL d   1      -2.748  -0.797   0.220  0.00  0.00    -0.004 A 
ATOM      5  C6  UNL d   1      -2.307  -0.140  -0.928  0.00  0.00     0.002 A 
ATOM      6  C7  UNL d   1      -0.980   0.279  -1.026  0.00  0.00     0.002 A 
ENDROOT
BRANCH   1   7
ATOM      7  C1  UNL d   1       1.363   0.454  -0.103  0.00  0.00     0.055 C 
ATOM      8  C   UNL d   1       1.772   1.398   1.018  0.00  0.00     0.019 C 
ENDBRANCH   1   7
TORSDOF 1
ENDMDL
