MODEL 1
REMARK minimizedAffinity -5.68859673
REMARK minimizedRMSD -1
REMARK  1 active torsions:
REMARK  status: ('A' for Active; 'I' for Inactive)
REMARK    1  A    between atoms: C1_2  and  C2_3 
ROOT
ATOM      1  C2  UNL d   1       0.076  -0.179   0.036  0.00  0.00    -0.077 A 
ATOM      2  C3  UNL d   1      -0.198   0.174  -1.292  0.00  0.00     0.002 A 
ATOM      3  C4  UNL d   1      -1.511   0.169  -1.767  0.00  0.00     0.002 A 
ATOM      4  C5  UNL d   1      -2.559  -0.184  -0.920  0.00  0.00    -0.004 A 
ATOM      5  C6  UNL d   1      -2.296  -0.539   0.402  0.00  0.00     0.002 A 
ATOM      6  C7  UNL d   1      -0.984  -0.536   0.879  0.00  0.00     0.002 A 
ENDROOT
BRANCH   1   7
ATOM      7  C1  UNL d   1       1.486  -0.127   0.564  0.00  0.00     0.055 C 
ATOM      8  C   UNL d   1       1.978   1.308   0.689  0.00  0.00     0.019 C 
ENDBRANCH   1   7
TORSDOF 1
ENDMDL
