MODEL 1
REMARK minimizedAffinity 9.16614437
REMARK minimizedRMSD -1
REMARK  1 active torsions:
REMARK  status: ('A' for Active; 'I' for Inactive)
REMARK    1  A    between atoms: C1_2  and  C2_3 
ROOT
ATOM      1  C2  UNL d   1      -5.192   3.390  -1.836  0.00  0.00    -0.077 A 
ATOM      2  C3  UNL d   1      -5.568   3.370  -3.187  0.00  0.00     0.002 A 
ATOM      3  C4  UNL d   1      -4.845   2.613  -4.110  0.00  0.00     0.002 A 
ATOM      4  C5  UNL d   1      -3.745   1.867  -3.693  0.00  0.00    -0.004 A 
ATOM      5  C6  UNL d   1      -3.361   1.881  -2.352  0.00  0.00     0.002 A 
ATOM      6  C7  UNL d   1      -4.082   2.639  -1.428  0.00  0.00     0.002 A 
ENDROOT
BRANCH   1   7
ATOM      7  C1  UNL d   1      -6.000   4.167  -0.830  0.00  0.00     0.055 C 
ATOM      8  C   UNL d   1      -6.000   5.655  -1.150  0.00  0.00     0.019 C 
ENDBRANCH   1   7
TORSDOF 1
ENDMDL
