MODEL 1
REMARK minimizedAffinity 14.9788752
REMARK minimizedRMSD -1
REMARK  1 active torsions:
REMARK  status: ('A' for Active; 'I' for Inactive)
REMARK    1  A    between atoms: C1_2  and  C2_3 
ROOT
ATOM      1  C2  UNL d   1      -4.073   1.846  -3.415  0.00  0.00    -0.077 A 
ATOM      2  C3  UNL d   1      -3.715   2.659  -2.331  0.00  0.00     0.002 A 
ATOM      3  C4  UNL d   1      -2.945   2.146  -1.286  0.00  0.00     0.002 A 
ATOM      4  C5  UNL d   1      -2.523   0.818  -1.316  0.00  0.00    -0.004 A 
ATOM      5  C6  UNL d   1      -2.875  -0.000  -2.389  0.00  0.00     0.002 A 
ATOM      6  C7  UNL d   1      -3.646   0.512  -3.434  0.00  0.00     0.002 A 
ENDROOT
BRANCH   1   7
ATOM      7  C1  UNL d   1      -4.861   2.411  -4.567  0.00  0.00     0.055 C 
ATOM      8  C   UNL d   1      -6.000   3.295  -4.077  0.00  0.00     0.019 C 
ENDBRANCH   1   7
TORSDOF 1
ENDMDL
