MODEL 1
REMARK minimizedAffinity 3.04568648
REMARK minimizedRMSD -1
REMARK  1 active torsions:
REMARK  status: ('A' for Active; 'I' for Inactive)
REMARK    1  A    between atoms: C1_2  and  C2_3 
ROOT
ATOM      1  C2  UNL d   1      -4.761  -3.594  -3.899  0.00  0.00    -0.077 A 
ATOM      2  C3  UNL d   1      -4.957  -3.608  -5.287  0.00  0.00     0.002 A 
ATOM      3  C4  UNL d   1      -4.878  -4.806  -5.999  0.00  0.00     0.002 A 
ATOM      4  C5  UNL d   1      -4.608  -5.999  -5.332  0.00  0.00    -0.004 A 
ATOM      5  C6  UNL d   1      -4.410  -5.995  -3.952  0.00  0.00     0.002 A 
ATOM      6  C7  UNL d   1      -4.487  -4.798  -3.238  0.00  0.00     0.002 A 
ENDROOT
BRANCH   1   7
ATOM      7  C1  UNL d   1      -4.895  -2.310  -3.121  0.00  0.00     0.055 C 
ATOM      8  C   UNL d   1      -3.737  -1.366  -3.409  0.00  0.00     0.019 C 
ENDBRANCH   1   7
TORSDOF 1
ENDMDL
