MODEL 1
REMARK minimizedAffinity 5.45477343
REMARK minimizedRMSD -1
REMARK  1 active torsions:
REMARK  status: ('A' for Active; 'I' for Inactive)
REMARK    1  A    between atoms: C1_2  and  C2_3 
ROOT
ATOM      1  C2  UNL d   1      -4.929   1.826  -3.458  0.00  0.00    -0.077 A 
ATOM      2  C3  UNL d   1      -3.858   0.936  -3.294  0.00  0.00     0.002 A 
ATOM      3  C4  UNL d   1      -3.860   0.014  -2.246  0.00  0.00     0.002 A 
ATOM      4  C5  UNL d   1      -4.931  -0.031  -1.356  0.00  0.00    -0.004 A 
ATOM      5  C6  UNL d   1      -6.000   0.851  -1.509  0.00  0.00     0.002 A 
ATOM      6  C7  UNL d   1      -5.999   1.775  -2.555  0.00  0.00     0.002 A 
ENDROOT
BRANCH   1   7
ATOM      7  C1  UNL d   1      -4.952   2.788  -4.616  0.00  0.00     0.055 C 
ATOM      8  C   UNL d   1      -5.851   3.981  -4.327  0.00  0.00     0.019 C 
ENDBRANCH   1   7
TORSDOF 1
ENDMDL
