MODEL 1
REMARK minimizedAffinity -2.11706924
REMARK minimizedRMSD -1
REMARK  0 active torsions:
REMARK  status: ('A' for Active; 'I' for Inactive)
ROOT
ATOM      1  C   UNL d   1      -0.348   1.028  -0.677  0.00  0.00     0.172 C 
ATOM      2  N   UNL d   1       0.106   0.014   0.246  0.00  0.00    -0.070 N 
ATOM      3  C1  UNL d   1       1.193  -0.799   0.066  0.00  0.00    -0.004 A 
ATOM      4  C2  UNL d   1       1.289  -1.624   1.166  0.00  0.00    -0.047 A 
ATOM      5  C3  UNL d   1       0.222  -1.296   2.036  0.00  0.00    -0.047 A 
ATOM      6  C4  UNL d   1      -0.495  -0.278   1.441  0.00  0.00    -0.004 A 
ENDROOT
TORSDOF 0
ENDMDL
