MODEL 1
REMARK minimizedAffinity 0.937626123
REMARK minimizedRMSD -1
REMARK  0 active torsions:
REMARK  status: ('A' for Active; 'I' for Inactive)
ROOT
ATOM      1  C   UNL d   1       3.803  -1.288  -1.513  0.00  0.00     0.172 C 
ATOM      2  N   UNL d   1       3.484  -2.617  -1.980  0.00  0.00    -0.070 N 
ATOM      3  C1  UNL d   1       3.084  -3.664  -1.193  0.00  0.00    -0.004 A 
ATOM      4  C2  UNL d   1       2.878  -4.753  -2.013  0.00  0.00    -0.047 A 
ATOM      5  C3  UNL d   1       3.165  -4.346  -3.337  0.00  0.00    -0.047 A 
ATOM      6  C4  UNL d   1       3.538  -3.020  -3.288  0.00  0.00    -0.004 A 
ENDROOT
TORSDOF 0
ENDMDL
