MODEL 1
REMARK minimizedAffinity 6.81948042
REMARK minimizedRMSD -1
REMARK  0 active torsions:
REMARK  status: ('A' for Active; 'I' for Inactive)
ROOT
ATOM      1  C   UNL d   1       3.764  -2.461  -3.384  0.00  0.00     0.172 C 
ATOM      2  N   UNL d   1       3.842  -3.837  -2.954  0.00  0.00    -0.070 N 
ATOM      3  C1  UNL d   1       2.990  -4.841  -3.333  0.00  0.00    -0.004 A 
ATOM      4  C2  UNL d   1       3.400  -6.000  -2.710  0.00  0.00    -0.047 A 
ATOM      5  C3  UNL d   1       4.536  -5.681  -1.929  0.00  0.00    -0.047 A 
ATOM      6  C4  UNL d   1       4.788  -4.336  -2.099  0.00  0.00    -0.004 A 
ENDROOT
TORSDOF 0
ENDMDL
