MODEL 1
REMARK minimizedAffinity 1.77340829
REMARK minimizedRMSD -1
REMARK  0 active torsions:
REMARK  status: ('A' for Active; 'I' for Inactive)
ROOT
ATOM      1  C   UNL d   1      -0.322   2.669   2.044  0.00  0.00     0.172 C 
ATOM      2  N   UNL d   1      -0.305   2.883   0.616  0.00  0.00    -0.070 N 
ATOM      3  C1  UNL d   1      -0.058   4.076  -0.009  0.00  0.00    -0.004 A 
ATOM      4  C2  UNL d   1      -0.132   3.864  -1.369  0.00  0.00    -0.047 A 
ATOM      5  C3  UNL d   1      -0.436   2.496  -1.568  0.00  0.00    -0.047 A 
ATOM      6  C4  UNL d   1      -0.538   1.913  -0.322  0.00  0.00    -0.004 A 
ENDROOT
TORSDOF 0
ENDMDL
