MODEL 1
REMARK minimizedAffinity 2.50933528
REMARK minimizedRMSD -1
REMARK  0 active torsions:
REMARK  status: ('A' for Active; 'I' for Inactive)
ROOT
ATOM      1  C   UNL d   1      -0.590  -5.998  -4.300  0.00  0.00     0.172 C 
ATOM      2  N   UNL d   1      -1.975  -5.974  -4.708  0.00  0.00    -0.070 N 
ATOM      3  C1  UNL d   1      -2.426  -5.924  -6.000  0.00  0.00    -0.004 A 
ATOM      4  C2  UNL d   1      -3.804  -5.917  -5.965  0.00  0.00    -0.047 A 
ATOM      5  C3  UNL d   1      -4.194  -5.964  -4.606  0.00  0.00    -0.047 A 
ATOM      6  C4  UNL d   1      -3.042  -5.999  -3.849  0.00  0.00    -0.004 A 
ENDROOT
TORSDOF 0
ENDMDL
