MODEL 1
REMARK minimizedAffinity -3.14426994
REMARK minimizedRMSD -1
REMARK  0 active torsions:
REMARK  status: ('A' for Active; 'I' for Inactive)
ROOT
ATOM      1  C   UNL d   1       5.475  -4.906  -0.199  0.00  0.00     0.172 C 
ATOM      2  N   UNL d   1       4.855  -4.019  -1.155  0.00  0.00    -0.070 N 
ATOM      3  C1  UNL d   1       4.652  -2.676  -0.982  0.00  0.00    -0.004 A 
ATOM      4  C2  UNL d   1       4.037  -2.192  -2.117  0.00  0.00    -0.047 A 
ATOM      5  C3  UNL d   1       3.864  -3.283  -3.002  0.00  0.00    -0.047 A 
ATOM      6  C4  UNL d   1       4.379  -4.401  -2.381  0.00  0.00    -0.004 A 
ENDROOT
TORSDOF 0
ENDMDL
