MODEL 1
REMARK minimizedAffinity 0.0371306576
REMARK minimizedRMSD -1
REMARK  0 active torsions:
REMARK  status: ('A' for Active; 'I' for Inactive)
ROOT
ATOM      1  C   UNL d   1       4.020  -2.009  -0.581  0.00  0.00     0.172 C 
ATOM      2  N   UNL d   1       4.189  -3.360  -1.063  0.00  0.00    -0.070 N 
ATOM      3  C1  UNL d   1       5.080  -4.277  -0.573  0.00  0.00    -0.004 A 
ATOM      4  C2  UNL d   1       4.930  -5.440  -1.297  0.00  0.00    -0.047 A 
ATOM      5  C3  UNL d   1       3.914  -5.214  -2.256  0.00  0.00    -0.047 A 
ATOM      6  C4  UNL d   1       3.472  -3.919  -2.088  0.00  0.00    -0.004 A 
ENDROOT
TORSDOF 0
ENDMDL
