MODEL 1
REMARK minimizedAffinity -2.2488811
REMARK minimizedRMSD -1
REMARK  0 active torsions:
REMARK  status: ('A' for Active; 'I' for Inactive)
ROOT
ATOM      1  C   UNL d   1       2.575  -4.177   0.580  0.00  0.00     0.172 C 
ATOM      2  N   UNL d   1       3.526  -3.727  -0.409  0.00  0.00    -0.070 N 
ATOM      3  C1  UNL d   1       4.429  -4.519  -1.067  0.00  0.00    -0.004 A 
ATOM      4  C2  UNL d   1       5.149  -3.716  -1.925  0.00  0.00    -0.047 A 
ATOM      5  C3  UNL d   1       4.662  -2.396  -1.777  0.00  0.00    -0.047 A 
ATOM      6  C4  UNL d   1       3.658  -2.431  -0.833  0.00  0.00    -0.004 A 
ENDROOT
TORSDOF 0
ENDMDL
