MODEL 1
REMARK minimizedAffinity -1.16407597
REMARK minimizedRMSD -1
REMARK  0 active torsions:
REMARK  status: ('A' for Active; 'I' for Inactive)
ROOT
ATOM      1  C   UNL d   1       2.797  -5.993  -5.653  0.00  0.00     0.020 A 
ATOM      2  C1  UNL d   1       4.149  -5.999  -5.994  0.00  0.00     0.020 A 
ATOM      3  C2  UNL d   1       5.122  -6.000  -4.991  0.00  0.00     0.034 A 
ATOM      4  C3  UNL d   1       4.743  -5.995  -3.644  0.00  0.00     0.017 A 
ATOM      5  C4  UNL d   1       3.386  -5.989  -3.303  0.00  0.00     0.017 A 
ATOM      6  C5  UNL d   1       2.416  -5.988  -4.311  0.00  0.00     0.034 A 
ATOM      7 Cl   UNL d   1       2.841  -5.982  -1.663  0.00  0.00    -0.070 Cl
ATOM      8 Cl1  UNL d   1       5.999  -5.996  -2.457  0.00  0.00    -0.070 Cl
ENDROOT
TORSDOF 0
ENDMDL
