MODEL 1
REMARK minimizedAffinity -2.81818819
REMARK minimizedRMSD -1
REMARK  0 active torsions:
REMARK  status: ('A' for Active; 'I' for Inactive)
ROOT
ATOM      1  C   UNL d   1       2.100  -5.348  -4.985  0.00  0.00     0.020 A 
ATOM      2  C1  UNL d   1       2.120  -5.434  -3.594  0.00  0.00     0.020 A 
ATOM      3  C2  UNL d   1       3.328  -5.635  -2.923  0.00  0.00     0.034 A 
ATOM      4  C3  UNL d   1       4.522  -5.751  -3.644  0.00  0.00     0.017 A 
ATOM      5  C4  UNL d   1       4.502  -5.664  -5.041  0.00  0.00     0.017 A 
ATOM      6  C5  UNL d   1       3.289  -5.463  -5.707  0.00  0.00     0.034 A 
ATOM      7 Cl   UNL d   1       5.934  -5.798  -5.999  0.00  0.00    -0.070 Cl
ATOM      8 Cl1  UNL d   1       5.980  -5.998  -2.750  0.00  0.00    -0.070 Cl
ENDROOT
TORSDOF 0
ENDMDL
