MODEL 1
REMARK minimizedAffinity -1.23859382
REMARK minimizedRMSD -1
REMARK  0 active torsions:
REMARK  status: ('A' for Active; 'I' for Inactive)
ROOT
ATOM      1  C   UNL d   1       5.996  -5.861  -4.820  0.00  0.00     0.020 A 
ATOM      2  C1  UNL d   1       5.200  -5.960  -5.961  0.00  0.00     0.020 A 
ATOM      3  C2  UNL d   1       3.809  -6.000  -5.840  0.00  0.00     0.034 A 
ATOM      4  C3  UNL d   1       3.210  -5.941  -4.577  0.00  0.00     0.017 A 
ATOM      5  C4  UNL d   1       4.010  -5.842  -3.432  0.00  0.00     0.017 A 
ATOM      6  C5  UNL d   1       5.402  -5.802  -3.559  0.00  0.00     0.034 A 
ATOM      7 Cl   UNL d   1       3.344  -5.765  -1.839  0.00  0.00    -0.070 Cl
ATOM      8 Cl1  UNL d   1       1.485  -5.995  -4.502  0.00  0.00    -0.070 Cl
ENDROOT
TORSDOF 0
ENDMDL
