MODEL 1
REMARK minimizedAffinity -0.222476959
REMARK minimizedRMSD -1
REMARK  0 active torsions:
REMARK  status: ('A' for Active; 'I' for Inactive)
ROOT
ATOM      1  C   UNL d   1       5.992  -5.511  -4.756  0.00  0.00     0.020 A 
ATOM      2  C1  UNL d   1       5.347  -5.855  -5.943  0.00  0.00     0.020 A 
ATOM      3  C2  UNL d   1       3.958  -6.000  -5.967  0.00  0.00     0.034 A 
ATOM      4  C3  UNL d   1       3.210  -5.801  -4.802  0.00  0.00     0.017 A 
ATOM      5  C4  UNL d   1       3.857  -5.456  -3.610  0.00  0.00     0.017 A 
ATOM      6  C5  UNL d   1       5.248  -5.312  -3.592  0.00  0.00     0.034 A 
ATOM      7 Cl   UNL d   1       3.001  -5.194  -2.132  0.00  0.00    -0.070 Cl
ATOM      8 Cl1  UNL d   1       1.496  -5.996  -4.905  0.00  0.00    -0.070 Cl
ENDROOT
TORSDOF 0
ENDMDL
