MODEL 1
REMARK minimizedAffinity -0.995236039
REMARK minimizedRMSD -1
REMARK  0 active torsions:
REMARK  status: ('A' for Active; 'I' for Inactive)
ROOT
ATOM      1  C   UNL d   1       3.092  -5.991  -2.085  0.00  0.00     0.020 A 
ATOM      2  C1  UNL d   1       4.487  -5.993  -2.070  0.00  0.00     0.020 A 
ATOM      3  C2  UNL d   1       5.198  -5.993  -3.271  0.00  0.00     0.034 A 
ATOM      4  C3  UNL d   1       4.516  -5.992  -4.493  0.00  0.00     0.017 A 
ATOM      5  C4  UNL d   1       3.116  -5.990  -4.508  0.00  0.00     0.017 A 
ATOM      6  C5  UNL d   1       2.409  -5.990  -3.302  0.00  0.00     0.034 A 
ATOM      7 Cl   UNL d   1       2.204  -5.989  -5.976  0.00  0.00    -0.070 Cl
ATOM      8 Cl1  UNL d   1       5.460  -5.992  -5.941  0.00  0.00    -0.070 Cl
ENDROOT
TORSDOF 0
ENDMDL
