MODEL 1
REMARK minimizedAffinity -2.20541191
REMARK minimizedRMSD -1
REMARK  0 active torsions:
REMARK  status: ('A' for Active; 'I' for Inactive)
ROOT
ATOM      1  C   UNL d   1       4.455  -5.747  -1.486  0.00  0.00     0.020 A 
ATOM      2  C1  UNL d   1       5.756  -5.911  -1.960  0.00  0.00     0.020 A 
ATOM      3  C2  UNL d   1       5.994  -5.987  -3.334  0.00  0.00     0.034 A 
ATOM      4  C3  UNL d   1       4.929  -5.899  -4.239  0.00  0.00     0.017 A 
ATOM      5  C4  UNL d   1       3.624  -5.734  -3.761  0.00  0.00     0.017 A 
ATOM      6  C5  UNL d   1       3.391  -5.658  -2.385  0.00  0.00     0.034 A 
ATOM      7 Cl   UNL d   1       2.259  -5.617  -4.816  0.00  0.00    -0.070 Cl
ATOM      8 Cl1  UNL d   1       5.296  -6.000  -5.924  0.00  0.00    -0.070 Cl
ENDROOT
TORSDOF 0
ENDMDL
