MODEL 1
REMARK minimizedAffinity -1.82565439
REMARK minimizedRMSD -1
REMARK  0 active torsions:
REMARK  status: ('A' for Active; 'I' for Inactive)
ROOT
ATOM      1  C   UNL d   1       5.998   3.929   3.361  0.00  0.00     0.020 A 
ATOM      2  C1  UNL d   1       5.042   4.928   3.185  0.00  0.00     0.020 A 
ATOM      3  C2  UNL d   1       3.815   4.623   2.591  0.00  0.00     0.034 A 
ATOM      4  C3  UNL d   1       3.542   3.317   2.171  0.00  0.00     0.017 A 
ATOM      5  C4  UNL d   1       4.502   2.314   2.348  0.00  0.00     0.017 A 
ATOM      6  C5  UNL d   1       5.729   2.625   2.943  0.00  0.00     0.034 A 
ATOM      7 Cl   UNL d   1       4.237   0.679   1.855  0.00  0.00    -0.070 Cl
ATOM      8 Cl1  UNL d   1       2.004   3.012   1.445  0.00  0.00    -0.070 Cl
ENDROOT
TORSDOF 0
ENDMDL
