MODEL 1
REMARK minimizedAffinity -0.415360153
REMARK minimizedRMSD -1
REMARK  0 active torsions:
REMARK  status: ('A' for Active; 'I' for Inactive)
ROOT
ATOM      1  C   UNL d   1       2.888  -6.000  -2.027  0.00  0.00     0.020 A 
ATOM      2  C1  UNL d   1       4.281  -5.992  -1.980  0.00  0.00     0.020 A 
ATOM      3  C2  UNL d   1       5.020  -5.981  -3.165  0.00  0.00     0.034 A 
ATOM      4  C3  UNL d   1       4.366  -5.979  -4.402  0.00  0.00     0.017 A 
ATOM      5  C4  UNL d   1       2.967  -5.987  -4.449  0.00  0.00     0.017 A 
ATOM      6  C5  UNL d   1       2.232  -5.997  -3.259  0.00  0.00     0.034 A 
ATOM      7 Cl   UNL d   1       2.089  -5.984  -5.937  0.00  0.00    -0.070 Cl
ATOM      8 Cl1  UNL d   1       5.343  -5.965  -5.827  0.00  0.00    -0.070 Cl
ENDROOT
TORSDOF 0
ENDMDL
