MODEL 1
REMARK minimizedAffinity -3.58606696
REMARK minimizedRMSD -1
REMARK  0 active torsions:
REMARK  status: ('A' for Active; 'I' for Inactive)
ROOT
ATOM      1  C   UNL d   1       3.753  -4.870  -1.855  0.00  0.00     0.020 A 
ATOM      2  C1  UNL d   1       5.112  -4.858  -2.168  0.00  0.00     0.020 A 
ATOM      3  C2  UNL d   1       5.535  -5.202  -3.454  0.00  0.00     0.034 A 
ATOM      4  C3  UNL d   1       4.599  -5.559  -4.431  0.00  0.00     0.017 A 
ATOM      5  C4  UNL d   1       3.235  -5.570  -4.116  0.00  0.00     0.017 A 
ATOM      6  C5  UNL d   1       2.817  -5.225  -2.827  0.00  0.00     0.034 A 
ATOM      7 Cl   UNL d   1       2.021  -6.000  -5.269  0.00  0.00    -0.070 Cl
ATOM      8 Cl1  UNL d   1       5.193  -5.973  -6.000  0.00  0.00    -0.070 Cl
ENDROOT
TORSDOF 0
ENDMDL
