MODEL 1
REMARK minimizedAffinity -2.78582621
REMARK minimizedRMSD -1
REMARK  0 active torsions:
REMARK  status: ('A' for Active; 'I' for Inactive)
ROOT
ATOM      1  C   UNL d   1       6.000  -5.228  -3.662  0.00  0.00     0.020 A 
ATOM      2  C1  UNL d   1       5.999  -5.549  -5.018  0.00  0.00     0.020 A 
ATOM      3  C2  UNL d   1       4.792  -5.783  -5.680  0.00  0.00     0.034 A 
ATOM      4  C3  UNL d   1       3.580  -5.696  -4.985  0.00  0.00     0.017 A 
ATOM      5  C4  UNL d   1       3.582  -5.373  -3.623  0.00  0.00     0.017 A 
ATOM      6  C5  UNL d   1       4.794  -5.140  -2.966  0.00  0.00     0.034 A 
ATOM      7 Cl   UNL d   1       2.127  -5.248  -2.698  0.00  0.00    -0.070 Cl
ATOM      8 Cl1  UNL d   1       2.125  -5.998  -5.866  0.00  0.00    -0.070 Cl
ENDROOT
TORSDOF 0
ENDMDL
