MODEL 1
REMARK minimizedAffinity -2.58330464
REMARK minimizedRMSD -1
REMARK  0 active torsions:
REMARK  status: ('A' for Active; 'I' for Inactive)
ROOT
ATOM      1  C   UNL d   1       2.417   2.770   1.029  0.00  0.00     0.020 A 
ATOM      2  C1  UNL d   1       2.843   1.445   1.112  0.00  0.00     0.020 A 
ATOM      3  C2  UNL d   1       3.947   1.114   1.900  0.00  0.00     0.034 A 
ATOM      4  C3  UNL d   1       4.629   2.110   2.609  0.00  0.00     0.017 A 
ATOM      5  C4  UNL d   1       4.201   3.439   2.525  0.00  0.00     0.017 A 
ATOM      6  C5  UNL d   1       3.095   3.765   1.734  0.00  0.00     0.034 A 
ATOM      7 Cl   UNL d   1       4.992   4.723   3.370  0.00  0.00    -0.070 Cl
ATOM      8 Cl1  UNL d   1       5.986   1.629   3.565  0.00  0.00    -0.070 Cl
ENDROOT
TORSDOF 0
ENDMDL
