MODEL 1
REMARK minimizedAffinity -0.44521904
REMARK minimizedRMSD -1
REMARK  0 active torsions:
REMARK  status: ('A' for Active; 'I' for Inactive)
ROOT
ATOM      1  C   UNL d   1       4.601  -5.223  -2.184  0.00  0.00     0.020 A 
ATOM      2  C1  UNL d   1       3.207  -5.213  -2.183  0.00  0.00     0.020 A 
ATOM      3  C2  UNL d   1       2.507  -5.430  -3.372  0.00  0.00     0.034 A 
ATOM      4  C3  UNL d   1       3.201  -5.657  -4.566  0.00  0.00     0.017 A 
ATOM      5  C4  UNL d   1       4.600  -5.666  -4.566  0.00  0.00     0.017 A 
ATOM      6  C5  UNL d   1       5.296  -5.449  -3.373  0.00  0.00     0.034 A 
ATOM      7 Cl   UNL d   1       5.526  -5.939  -6.000  0.00  0.00    -0.070 Cl
ATOM      8 Cl1  UNL d   1       2.270  -5.917  -5.999  0.00  0.00    -0.070 Cl
ENDROOT
TORSDOF 0
ENDMDL
