MODEL 1
REMARK minimizedAffinity -2.5337801
REMARK minimizedRMSD -1
REMARK  0 active torsions:
REMARK  status: ('A' for Active; 'I' for Inactive)
ROOT
ATOM      1  C   UNL d   1       3.349  -5.719  -5.874  0.00  0.00     0.020 A 
ATOM      2  C1  UNL d   1       4.731  -5.868  -5.990  0.00  0.00     0.020 A 
ATOM      3  C2  UNL d   1       5.526  -5.916  -4.843  0.00  0.00     0.034 A 
ATOM      4  C3  UNL d   1       4.942  -5.815  -3.576  0.00  0.00     0.017 A 
ATOM      5  C4  UNL d   1       3.555  -5.666  -3.460  0.00  0.00     0.017 A 
ATOM      6  C5  UNL d   1       2.763  -5.618  -4.612  0.00  0.00     0.034 A 
ATOM      7 Cl   UNL d   1       2.761  -5.535  -1.931  0.00  0.00    -0.070 Cl
ATOM      8 Cl1  UNL d   1       5.986  -5.883  -2.201  0.00  0.00    -0.070 Cl
ENDROOT
TORSDOF 0
ENDMDL
