MODEL 1
REMARK minimizedAffinity -2.34861565
REMARK minimizedRMSD -1
REMARK  0 active torsions:
REMARK  status: ('A' for Active; 'I' for Inactive)
ROOT
ATOM      1  C   UNL d   1       3.790  -5.999  -5.924  0.00  0.00     0.020 A 
ATOM      2  C1  UNL d   1       5.143  -5.672  -5.998  0.00  0.00     0.020 A 
ATOM      3  C2  UNL d   1       5.805  -5.181  -4.871  0.00  0.00     0.034 A 
ATOM      4  C3  UNL d   1       5.115  -5.015  -3.665  0.00  0.00     0.017 A 
ATOM      5  C4  UNL d   1       3.756  -5.343  -3.591  0.00  0.00     0.017 A 
ATOM      6  C5  UNL d   1       3.098  -5.835  -4.723  0.00  0.00     0.034 A 
ATOM      7 Cl   UNL d   1       2.837  -5.166  -2.139  0.00  0.00    -0.070 Cl
ATOM      8 Cl1  UNL d   1       5.997  -4.403  -2.311  0.00  0.00    -0.070 Cl
ENDROOT
TORSDOF 0
ENDMDL
