MODEL 1
REMARK minimizedAffinity -2.92099833
REMARK minimizedRMSD -1
REMARK  0 active torsions:
REMARK  status: ('A' for Active; 'I' for Inactive)
ROOT
ATOM      1  C   UNL d   1       3.874  -5.990  -5.906  0.00  0.00     0.020 A 
ATOM      2  C1  UNL d   1       5.170  -5.483  -5.998  0.00  0.00     0.020 A 
ATOM      3  C2  UNL d   1       5.808  -4.987  -4.860  0.00  0.00     0.034 A 
ATOM      4  C3  UNL d   1       5.150  -4.995  -3.624  0.00  0.00     0.017 A 
ATOM      5  C4  UNL d   1       3.850  -5.504  -3.533  0.00  0.00     0.017 A 
ATOM      6  C5  UNL d   1       3.215  -6.000  -4.676  0.00  0.00     0.034 A 
ATOM      7 Cl   UNL d   1       2.974  -5.548  -2.043  0.00  0.00    -0.070 Cl
ATOM      8 Cl1  UNL d   1       6.000  -4.366  -2.258  0.00  0.00    -0.070 Cl
ENDROOT
TORSDOF 0
ENDMDL
