MODEL 1
REMARK minimizedAffinity -2.27755618
REMARK minimizedRMSD -1
REMARK  0 active torsions:
REMARK  status: ('A' for Active; 'I' for Inactive)
ROOT
ATOM      1  C   UNL d   1       5.179  -5.945  -5.456  0.00  0.00     0.020 A 
ATOM      2  C1  UNL d   1       5.991  -5.824  -4.329  0.00  0.00     0.020 A 
ATOM      3  C2  UNL d   1       5.416  -5.753  -3.058  0.00  0.00     0.034 A 
ATOM      4  C3  UNL d   1       4.025  -5.802  -2.911  0.00  0.00     0.017 A 
ATOM      5  C4  UNL d   1       3.211  -5.923  -4.043  0.00  0.00     0.017 A 
ATOM      6  C5  UNL d   1       3.792  -5.994  -5.313  0.00  0.00     0.034 A 
ATOM      7 Cl   UNL d   1       1.487  -5.990  -3.941  0.00  0.00    -0.070 Cl
ATOM      8 Cl1  UNL d   1       3.383  -5.709  -1.310  0.00  0.00    -0.070 Cl
ENDROOT
TORSDOF 0
ENDMDL
