MODEL 1
REMARK minimizedAffinity -2.43656325
REMARK minimizedRMSD -1
REMARK  0 active torsions:
REMARK  status: ('A' for Active; 'I' for Inactive)
ROOT
ATOM      1  C   UNL d   1       4.047  -6.000  -5.884  0.00  0.00     0.020 A 
ATOM      2  C1  UNL d   1       5.391  -5.631  -5.841  0.00  0.00     0.020 A 
ATOM      3  C2  UNL d   1       5.974  -5.259  -4.628  0.00  0.00     0.034 A 
ATOM      4  C3  UNL d   1       5.213  -5.256  -3.453  0.00  0.00     0.017 A 
ATOM      5  C4  UNL d   1       3.864  -5.626  -3.497  0.00  0.00     0.017 A 
ATOM      6  C5  UNL d   1       3.285  -5.997  -4.715  0.00  0.00     0.034 A 
ATOM      7 Cl   UNL d   1       2.862  -5.646  -2.089  0.00  0.00    -0.070 Cl
ATOM      8 Cl1  UNL d   1       6.000  -4.785  -1.988  0.00  0.00    -0.070 Cl
ENDROOT
TORSDOF 0
ENDMDL
