MODEL 1
REMARK minimizedAffinity -2.61230135
REMARK minimizedRMSD -1
REMARK  0 active torsions:
REMARK  status: ('A' for Active; 'I' for Inactive)
ROOT
ATOM      1  C   UNL d   1       3.186  -4.863  -2.223  0.00  0.00     0.020 A 
ATOM      2  C1  UNL d   1       4.543  -4.543  -2.194  0.00  0.00     0.020 A 
ATOM      3  C2  UNL d   1       5.315  -4.671  -3.351  0.00  0.00     0.034 A 
ATOM      4  C3  UNL d   1       4.730  -5.119  -4.541  0.00  0.00     0.017 A 
ATOM      5  C4  UNL d   1       3.368  -5.440  -4.569  0.00  0.00     0.017 A 
ATOM      6  C5  UNL d   1       2.600  -5.310  -3.408  0.00  0.00     0.034 A 
ATOM      7 Cl   UNL d   1       2.577  -5.999  -6.000  0.00  0.00    -0.070 Cl
ATOM      8 Cl1  UNL d   1       5.745  -5.253  -5.934  0.00  0.00    -0.070 Cl
ENDROOT
TORSDOF 0
ENDMDL
