MODEL 1
REMARK minimizedAffinity 3.00466704
REMARK minimizedRMSD -1
REMARK  0 active torsions:
REMARK  status: ('A' for Active; 'I' for Inactive)
ROOT
ATOM      1  C   UNL d   1       0.455  -1.746  -1.006  0.00  0.00    -0.002 A 
ATOM      2  C1  UNL d   1       1.662  -1.102  -0.774  0.00  0.00     0.010 A 
ATOM      3  C2  UNL d   1       1.739  -0.042   0.132  0.00  0.00     0.041 A 
ATOM      4  C3  UNL d   1       0.572   0.362   0.808  0.00  0.00    -0.075 A 
ATOM      5  S   UNL d   1       0.428   1.634   1.963  0.00  0.00     0.015 SA
ATOM      6  C4  UNL d   1      -1.239   1.353   2.176  0.00  0.00     0.022 A 
ATOM      7  C5  UNL d   1      -1.692   0.317   1.393  0.00  0.00     0.026 A 
ATOM      8  C6  UNL d   1      -0.655  -0.271   0.592  0.00  0.00    -0.082 A 
ATOM      9  C7  UNL d   1      -0.701  -1.341  -0.333  0.00  0.00     0.045 A 
ENDROOT
TORSDOF 0
ENDMDL
