MODEL 1
REMARK minimizedAffinity -0.106792755
REMARK minimizedRMSD -1
REMARK  0 active torsions:
REMARK  status: ('A' for Active; 'I' for Inactive)
ROOT
ATOM      1  C   UNL d   1       0.074   1.599   2.037  0.00  0.00    -0.002 A 
ATOM      2  C1  UNL d   1       0.412   0.901   0.887  0.00  0.00     0.010 A 
ATOM      3  C2  UNL d   1       1.751   0.722   0.532  0.00  0.00     0.041 A 
ATOM      4  C3  UNL d   1       2.753   1.260   1.363  0.00  0.00    -0.075 A 
ATOM      5  S   UNL d   1       4.459   1.164   1.129  0.00  0.00     0.015 SA
ATOM      6  C4  UNL d   1       4.778   2.047   2.551  0.00  0.00     0.022 A 
ATOM      7  C5  UNL d   1       3.624   2.414   3.201  0.00  0.00     0.026 A 
ATOM      8  C6  UNL d   1       2.438   1.966   2.527  0.00  0.00    -0.082 A 
ATOM      9  C7  UNL d   1       1.071   2.131   2.858  0.00  0.00     0.045 A 
ENDROOT
TORSDOF 0
ENDMDL
