MODEL 1
REMARK minimizedAffinity 7.10728216
REMARK minimizedRMSD -1
REMARK  0 active torsions:
REMARK  status: ('A' for Active; 'I' for Inactive)
ROOT
ATOM      1  C   UNL d   1      -0.731   0.779   2.082  0.00  0.00    -0.002 A 
ATOM      2  C1  UNL d   1       0.210   1.789   2.221  0.00  0.00     0.010 A 
ATOM      3  C2  UNL d   1       1.327   1.839   1.384  0.00  0.00     0.041 A 
ATOM      4  C3  UNL d   1       1.482   0.849   0.394  0.00  0.00    -0.075 A 
ATOM      5  S   UNL d   1       2.769   0.711  -0.745  0.00  0.00     0.015 SA
ATOM      6  C4  UNL d   1       2.099  -0.692  -1.444  0.00  0.00     0.022 A 
ATOM      7  C5  UNL d   1       0.922  -1.060  -0.835  0.00  0.00     0.026 A 
ATOM      8  C6  UNL d   1       0.547  -0.177   0.234  0.00  0.00    -0.082 A 
ATOM      9  C7  UNL d   1      -0.574  -0.202   1.099  0.00  0.00     0.045 A 
ENDROOT
TORSDOF 0
ENDMDL
