MODEL 1
REMARK minimizedAffinity 4.51611471
REMARK minimizedRMSD -1
REMARK  0 active torsions:
REMARK  status: ('A' for Active; 'I' for Inactive)
ROOT
ATOM      1  C   UNL d   1      -0.468  -4.077   2.390  0.00  0.00    -0.002 A 
ATOM      2  C1  UNL d   1      -0.698  -2.808   1.878  0.00  0.00     0.010 A 
ATOM      3  C2  UNL d   1      -1.587  -2.621   0.817  0.00  0.00     0.041 A 
ATOM      4  C3  UNL d   1      -2.248  -3.741   0.276  0.00  0.00    -0.075 A 
ATOM      5  S   UNL d   1      -3.380  -3.752  -1.024  0.00  0.00     0.015 SA
ATOM      6  C4  UNL d   1      -3.586  -5.441  -0.929  0.00  0.00     0.022 A 
ATOM      7  C5  UNL d   1      -2.817  -5.999   0.065  0.00  0.00     0.026 A 
ATOM      8  C6  UNL d   1      -2.034  -5.029   0.776  0.00  0.00    -0.082 A 
ATOM      9  C7  UNL d   1      -1.127  -5.186   1.851  0.00  0.00     0.045 A 
ENDROOT
TORSDOF 0
ENDMDL
