MODEL 1
REMARK minimizedAffinity 8.82943916
REMARK minimizedRMSD -1
REMARK  0 active torsions:
REMARK  status: ('A' for Active; 'I' for Inactive)
ROOT
ATOM      1  C   UNL d   1      -1.257   2.794   1.245  0.00  0.00    -0.002 A 
ATOM      2  C1  UNL d   1      -0.050   2.941   0.576  0.00  0.00     0.010 A 
ATOM      3  C2  UNL d   1       1.112   2.346   1.070  0.00  0.00     0.041 A 
ATOM      4  C3  UNL d   1       1.040   1.591   2.258  0.00  0.00    -0.075 A 
ATOM      5  S   UNL d   1       2.334   0.771   3.048  0.00  0.00     0.015 SA
ATOM      6  C4  UNL d   1       1.315   0.206   4.292  0.00  0.00     0.022 A 
ATOM      7  C5  UNL d   1       0.016   0.624   4.124  0.00  0.00     0.026 A 
ATOM      8  C6  UNL d   1      -0.164   1.429   2.949  0.00  0.00    -0.082 A 
ATOM      9  C7  UNL d   1      -1.325   2.046   2.423  0.00  0.00     0.045 A 
ENDROOT
TORSDOF 0
ENDMDL
