MODEL 1
REMARK minimizedAffinity 10.2885103
REMARK minimizedRMSD -1
REMARK  0 active torsions:
REMARK  status: ('A' for Active; 'I' for Inactive)
ROOT
ATOM      1  C   UNL d   1      -2.590   0.421   0.855  0.00  0.00    -0.002 A 
ATOM      2  C1  UNL d   1      -1.845  -0.630   0.340  0.00  0.00     0.010 A 
ATOM      3  C2  UNL d   1      -0.461  -0.674   0.517  0.00  0.00     0.041 A 
ATOM      4  C3  UNL d   1       0.168   0.365   1.230  0.00  0.00    -0.075 A 
ATOM      5  S   UNL d   1       1.851   0.522   1.572  0.00  0.00     0.015 SA
ATOM      6  C4  UNL d   1       1.621   1.987   2.411  0.00  0.00     0.022 A 
ATOM      7  C5  UNL d   1       0.299   2.363   2.439  0.00  0.00     0.026 A 
ATOM      8  C6  UNL d   1      -0.560   1.434   1.759  0.00  0.00    -0.082 A 
ATOM      9  C7  UNL d   1      -1.962   1.450   1.562  0.00  0.00     0.045 A 
ENDROOT
TORSDOF 0
ENDMDL
