MODEL 1
REMARK minimizedAffinity 20.4722157
REMARK minimizedRMSD -1
REMARK  0 active torsions:
REMARK  status: ('A' for Active; 'I' for Inactive)
ROOT
ATOM      1  C   UNL d   1      -2.252   2.993   0.789  0.00  0.00    -0.002 A 
ATOM      2  C1  UNL d   1      -2.913   1.968   1.450  0.00  0.00     0.010 A 
ATOM      3  C2  UNL d   1      -2.225   1.129   2.328  0.00  0.00     0.041 A 
ATOM      4  C3  UNL d   1      -0.847   1.340   2.533  0.00  0.00    -0.075 A 
ATOM      5  S   UNL d   1       0.201   0.437   3.562  0.00  0.00     0.015 SA
ATOM      6  C4  UNL d   1       1.551   1.392   3.149  0.00  0.00     0.022 A 
ATOM      7  C5  UNL d   1       1.228   2.380   2.249  0.00  0.00     0.026 A 
ATOM      8  C6  UNL d   1      -0.159   2.366   1.879  0.00  0.00    -0.082 A 
ATOM      9  C7  UNL d   1      -0.886   3.200   0.995  0.00  0.00     0.045 A 
ENDROOT
TORSDOF 0
ENDMDL
