MODEL 1
REMARK minimizedAffinity 8.80474758
REMARK minimizedRMSD -1
REMARK  0 active torsions:
REMARK  status: ('A' for Active; 'I' for Inactive)
ROOT
ATOM      1  C   UNL d   1      -4.612  -5.089  -0.936  0.00  0.00    -0.002 A 
ATOM      2  C1  UNL d   1      -4.506  -3.779  -1.381  0.00  0.00     0.010 A 
ATOM      3  C2  UNL d   1      -3.459  -2.964  -0.945  0.00  0.00     0.041 A 
ATOM      4  C3  UNL d   1      -2.511  -3.493  -0.047  0.00  0.00    -0.075 A 
ATOM      5  S   UNL d   1      -1.145  -2.681   0.621  0.00  0.00     0.015 SA
ATOM      6  C4  UNL d   1      -0.671  -4.054   1.512  0.00  0.00     0.022 A 
ATOM      7  C5  UNL d   1      -1.523  -5.115   1.317  0.00  0.00     0.026 A 
ATOM      8  C6  UNL d   1      -2.597  -4.810   0.415  0.00  0.00    -0.082 A 
ATOM      9  C7  UNL d   1      -3.670  -5.611  -0.045  0.00  0.00     0.045 A 
ENDROOT
TORSDOF 0
ENDMDL
