MODEL 1
REMARK minimizedAffinity 5.6688509
REMARK minimizedRMSD -1
REMARK  0 active torsions:
REMARK  status: ('A' for Active; 'I' for Inactive)
ROOT
ATOM      1  C   UNL d   1       0.149   1.670   2.694  0.00  0.00    -0.002 A 
ATOM      2  C1  UNL d   1      -0.746   0.696   2.274  0.00  0.00     0.010 A 
ATOM      3  C2  UNL d   1      -0.387  -0.218   1.281  0.00  0.00     0.041 A 
ATOM      4  C3  UNL d   1       0.900  -0.137   0.713  0.00  0.00    -0.075 A 
ATOM      5  S   UNL d   1       1.559  -1.151  -0.516  0.00  0.00     0.015 SA
ATOM      6  C4  UNL d   1       3.045  -0.315  -0.512  0.00  0.00     0.022 A 
ATOM      7  C5  UNL d   1       3.055   0.715   0.399  0.00  0.00     0.026 A 
ATOM      8  C6  UNL d   1       1.819   0.834   1.120  0.00  0.00    -0.082 A 
ATOM      9  C7  UNL d   1       1.425   1.747   2.128  0.00  0.00     0.045 A 
ENDROOT
TORSDOF 0
ENDMDL
