MODEL 1
REMARK minimizedAffinity 9.52322388
REMARK minimizedRMSD -1
REMARK  0 active torsions:
REMARK  status: ('A' for Active; 'I' for Inactive)
ROOT
ATOM      1  C   UNL d   1      -0.004   2.176   2.548  0.00  0.00    -0.002 A 
ATOM      2  C1  UNL d   1      -0.750   1.007   2.595  0.00  0.00     0.010 A 
ATOM      3  C2  UNL d   1      -0.439  -0.068   1.760  0.00  0.00     0.041 A 
ATOM      4  C3  UNL d   1       0.647   0.052   0.871  0.00  0.00    -0.075 A 
ATOM      5  S   UNL d   1       1.213  -1.135  -0.244  0.00  0.00     0.015 SA
ATOM      6  C4  UNL d   1       2.460  -0.118  -0.809  0.00  0.00     0.022 A 
ATOM      7  C5  UNL d   1       2.458   1.101  -0.173  0.00  0.00     0.026 A 
ATOM      8  C6  UNL d   1       1.414   1.219   0.806  0.00  0.00    -0.082 A 
ATOM      9  C7  UNL d   1       1.072   2.292   1.664  0.00  0.00     0.045 A 
ENDROOT
TORSDOF 0
ENDMDL
