MODEL 1
REMARK minimizedAffinity 2.7820375
REMARK minimizedRMSD -1
REMARK  0 active torsions:
REMARK  status: ('A' for Active; 'I' for Inactive)
ROOT
ATOM      1  C   UNL d   1      -4.053   4.160   0.147  0.00  0.00    -0.002 A 
ATOM      2  C1  UNL d   1      -4.719   5.363  -0.040  0.00  0.00     0.010 A 
ATOM      3  C2  UNL d   1      -5.350   6.000   1.030  0.00  0.00     0.041 A 
ATOM      4  C3  UNL d   1      -5.299   5.401   2.305  0.00  0.00    -0.075 A 
ATOM      5  S   UNL d   1      -5.999   5.999   3.763  0.00  0.00     0.015 SA
ATOM      6  C4  UNL d   1      -5.430   4.672   4.668  0.00  0.00     0.022 A 
ATOM      7  C5  UNL d   1      -4.722   3.785   3.893  0.00  0.00     0.026 A 
ATOM      8  C6  UNL d   1      -4.634   4.191   2.518  0.00  0.00    -0.082 A 
ATOM      9  C7  UNL d   1      -4.005   3.570   1.413  0.00  0.00     0.045 A 
ENDROOT
TORSDOF 0
ENDMDL
