MODEL 1
REMARK minimizedAffinity 15.8801842
REMARK minimizedRMSD -1
REMARK  0 active torsions:
REMARK  status: ('A' for Active; 'I' for Inactive)
ROOT
ATOM      1  C   UNL d   1       1.158   1.870   1.620  0.00  0.00    -0.002 A 
ATOM      2  C1  UNL d   1       1.099   0.518   1.928  0.00  0.00     0.010 A 
ATOM      3  C2  UNL d   1      -0.106  -0.069   2.319  0.00  0.00     0.041 A 
ATOM      4  C3  UNL d   1      -1.262   0.733   2.395  0.00  0.00    -0.075 A 
ATOM      5  S   UNL d   1      -2.847   0.230   2.850  0.00  0.00     0.015 SA
ATOM      6  C4  UNL d   1      -3.483   1.798   2.646  0.00  0.00     0.022 A 
ATOM      7  C5  UNL d   1      -2.524   2.696   2.241  0.00  0.00     0.026 A 
ATOM      8  C6  UNL d   1      -1.227   2.096   2.090  0.00  0.00    -0.082 A 
ATOM      9  C7  UNL d   1       0.009   2.662   1.697  0.00  0.00     0.045 A 
ENDROOT
TORSDOF 0
ENDMDL
