MODEL 1
REMARK minimizedAffinity 12.2494993
REMARK minimizedRMSD -1
REMARK  0 active torsions:
REMARK  status: ('A' for Active; 'I' for Inactive)
ROOT
ATOM      1  C   UNL d   1       2.840  -0.450  -0.687  0.00  0.00    -0.002 A 
ATOM      2  C1  UNL d   1       1.623  -1.106  -0.805  0.00  0.00     0.010 A 
ATOM      3  C2  UNL d   1       0.482  -0.605  -0.174  0.00  0.00     0.041 A 
ATOM      4  C3  UNL d   1       0.586   0.579   0.582  0.00  0.00    -0.075 A 
ATOM      5  S   UNL d   1      -0.678   1.378   1.441  0.00  0.00     0.015 SA
ATOM      6  C4  UNL d   1       0.368   2.609   1.983  0.00  0.00     0.022 A 
ATOM      7  C5  UNL d   1       1.653   2.431   1.530  0.00  0.00     0.026 A 
ATOM      8  C6  UNL d   1       1.800   1.258   0.715  0.00  0.00    -0.082 A 
ATOM      9  C7  UNL d   1       2.939   0.724   0.064  0.00  0.00     0.045 A 
ENDROOT
TORSDOF 0
ENDMDL
