MODEL 1
REMARK minimizedAffinity -1.36067152
REMARK minimizedRMSD -1
REMARK  0 active torsions:
REMARK  status: ('A' for Active; 'I' for Inactive)
ROOT
ATOM      1  C   UNL d   1      -1.200   1.001   2.014  0.00  0.00    -0.002 A 
ATOM      2  C1  UNL d   1      -0.128   1.850   2.250  0.00  0.00     0.010 A 
ATOM      3  C2  UNL d   1       1.100   1.634   1.623  0.00  0.00     0.041 A 
ATOM      4  C3  UNL d   1       1.234   0.542   0.744  0.00  0.00    -0.075 A 
ATOM      5  S   UNL d   1       2.643   0.083  -0.138  0.00  0.00     0.015 SA
ATOM      6  C4  UNL d   1       1.855  -1.250  -0.850  0.00  0.00     0.022 A 
ATOM      7  C5  UNL d   1       0.548  -1.357  -0.436  0.00  0.00     0.026 A 
ATOM      8  C6  UNL d   1       0.168  -0.326   0.488  0.00  0.00    -0.082 A 
ATOM      9  C7  UNL d   1      -1.064  -0.081   1.141  0.00  0.00     0.045 A 
ENDROOT
TORSDOF 0
ENDMDL
