MODEL 1
REMARK minimizedAffinity 13.5465145
REMARK minimizedRMSD -1
REMARK  0 active torsions:
REMARK  status: ('A' for Active; 'I' for Inactive)
ROOT
ATOM      1  C4' PXY d   1       5.876   2.806   0.672  0.00  0.00     0.077 C 
ATOM      2  C1' PXY d   1       4.303   5.999   5.227  0.00  0.00     0.077 C 
ATOM      3  C1  PXY d   1       4.711   5.151   4.039  0.00  0.00    -0.082 A 
ATOM      4  C2  PXY d   1       5.641   5.593   3.208  0.00  0.00     0.003 A 
ATOM      5  C3  PXY d   1       6.000   4.854   2.111  0.00  0.00     0.003 A 
ATOM      6  C4  PXY d   1       5.439   3.624   1.890  0.00  0.00    -0.082 A 
ATOM      7  C5  PXY d   1       4.497   3.161   2.739  0.00  0.00     0.003 A 
ATOM      8  C6  PXY d   1       4.117   3.945   3.824  0.00  0.00     0.003 A 
ENDROOT
TORSDOF 0
ENDMDL
