MODEL 1
REMARK minimizedAffinity 5.05885458
REMARK minimizedRMSD -1
REMARK  0 active torsions:
REMARK  status: ('A' for Active; 'I' for Inactive)
ROOT
ATOM      1  C4' PXY d   1      -0.528   0.626   2.080  0.00  0.00     0.077 C 
ATOM      2  C1' PXY d   1       2.288  -2.847   5.743  0.00  0.00     0.077 C 
ATOM      3  C1  PXY d   1       1.554  -1.926   4.789  0.00  0.00    -0.082 A 
ATOM      4  C2  PXY d   1       0.543  -2.395   4.075  0.00  0.00     0.003 A 
ATOM      5  C3  PXY d   1      -0.112  -1.584   3.184  0.00  0.00     0.003 A 
ATOM      6  C4  PXY d   1       0.237  -0.266   3.062  0.00  0.00    -0.082 A 
ATOM      7  C5  PXY d   1       1.260   0.223   3.795  0.00  0.00     0.003 A 
ATOM      8  C6  PXY d   1       1.938  -0.627   4.663  0.00  0.00     0.003 A 
ENDROOT
TORSDOF 0
ENDMDL
