MODEL 1
REMARK minimizedAffinity 9.67039776
REMARK minimizedRMSD -1
REMARK  0 active torsions:
REMARK  status: ('A' for Active; 'I' for Inactive)
ROOT
ATOM      1  C4' PXY d   1      -1.021   4.533   0.582  0.00  0.00     0.077 C 
ATOM      2  C1' PXY d   1      -5.945   5.309  -2.345  0.00  0.00     0.077 C 
ATOM      3  C1  PXY d   1      -4.660   5.098  -1.568  0.00  0.00    -0.082 A 
ATOM      4  C2  PXY d   1      -3.691   5.994  -1.652  0.00  0.00     0.003 A 
ATOM      5  C3  PXY d   1      -2.510   5.803  -0.982  0.00  0.00     0.003 A 
ATOM      6  C4  PXY d   1      -2.339   4.709  -0.176  0.00  0.00    -0.082 A 
ATOM      7  C5  PXY d   1      -3.328   3.795  -0.077  0.00  0.00     0.003 A 
ATOM      8  C6  PXY d   1      -4.503   3.987  -0.798  0.00  0.00     0.003 A 
ENDROOT
TORSDOF 0
ENDMDL
