MODEL 1
REMARK minimizedAffinity 20.196703
REMARK minimizedRMSD -1
REMARK  0 active torsions:
REMARK  status: ('A' for Active; 'I' for Inactive)
ROOT
ATOM      1  C4' PXY d   1       2.756   0.381  -4.586  0.00  0.00     0.077 C 
ATOM      2  C1' PXY d   1      -2.308  -2.258  -3.691  0.00  0.00     0.077 C 
ATOM      3  C1  PXY d   1      -0.979  -1.572  -3.937  0.00  0.00    -0.082 A 
ATOM      4  C2  PXY d   1      -0.250  -1.169  -2.909  0.00  0.00     0.003 A 
ATOM      5  C3  PXY d   1       0.939  -0.518  -3.114  0.00  0.00     0.003 A 
ATOM      6  C4  PXY d   1       1.413  -0.325  -4.384  0.00  0.00    -0.082 A 
ATOM      7  C5  PXY d   1       0.680  -0.742  -5.438  0.00  0.00     0.003 A 
ATOM      8  C6  PXY d   1      -0.544  -1.364  -5.210  0.00  0.00     0.003 A 
ENDROOT
TORSDOF 0
ENDMDL
