MODEL 1
REMARK minimizedAffinity 8.00513268
REMARK minimizedRMSD -1
REMARK  0 active torsions:
REMARK  status: ('A' for Active; 'I' for Inactive)
ROOT
ATOM      1  C4' PXY d   1      -1.005   0.242   2.305  0.00  0.00     0.077 C 
ATOM      2  C1' PXY d   1       3.051  -2.819   5.061  0.00  0.00     0.077 C 
ATOM      3  C1  PXY d   1       1.994  -2.005   4.341  0.00  0.00    -0.082 A 
ATOM      4  C2  PXY d   1       0.767  -2.486   4.223  0.00  0.00     0.003 A 
ATOM      5  C3  PXY d   1      -0.193  -1.777   3.547  0.00  0.00     0.003 A 
ATOM      6  C4  PXY d   1       0.092  -0.541   3.032  0.00  0.00    -0.082 A 
ATOM      7  C5  PXY d   1       1.339  -0.039   3.157  0.00  0.00     0.003 A 
ATOM      8  C6  PXY d   1       2.310  -0.792   3.811  0.00  0.00     0.003 A 
ENDROOT
TORSDOF 0
ENDMDL
