MODEL 1
REMARK minimizedAffinity 2.44734836
REMARK minimizedRMSD -1
REMARK  0 active torsions:
REMARK  status: ('A' for Active; 'I' for Inactive)
ROOT
ATOM      1  C4' PXY d   1       2.865  -1.877   6.000  0.00  0.00     0.077 C 
ATOM      2  C1' PXY d   1      -0.840   0.530   2.272  0.00  0.00     0.077 C 
ATOM      3  C1  PXY d   1       0.135  -0.089   3.254  0.00  0.00    -0.082 A 
ATOM      4  C2  PXY d   1       0.641  -1.287   3.007  0.00  0.00     0.003 A 
ATOM      5  C3  PXY d   1       1.499  -1.875   3.900  0.00  0.00     0.003 A 
ATOM      6  C4  PXY d   1       1.885  -1.209   5.032  0.00  0.00    -0.082 A 
ATOM      7  C5  PXY d   1       1.382   0.018   5.286  0.00  0.00     0.003 A 
ATOM      8  C6  PXY d   1       0.480   0.581   4.387  0.00  0.00     0.003 A 
ENDROOT
TORSDOF 0
ENDMDL
