MODEL 1
REMARK minimizedAffinity 10.0428019
REMARK minimizedRMSD -1
REMARK  0 active torsions:
REMARK  status: ('A' for Active; 'I' for Inactive)
ROOT
ATOM      1  C4' PXY d   1      -4.555   1.486   1.316  0.00  0.00     0.077 C 
ATOM      2  C1' PXY d   1       0.430  -0.329   3.612  0.00  0.00     0.077 C 
ATOM      3  C1  PXY d   1      -0.880   0.135   3.005  0.00  0.00    -0.082 A 
ATOM      4  C2  PXY d   1      -1.047   1.414   2.711  0.00  0.00     0.003 A 
ATOM      5  C3  PXY d   1      -2.237   1.856   2.191  0.00  0.00     0.003 A 
ATOM      6  C4  PXY d   1      -3.246   0.971   1.921  0.00  0.00    -0.082 A 
ATOM      7  C5  PXY d   1      -3.079  -0.337   2.209  0.00  0.00     0.003 A 
ATOM      8  C6  PXY d   1      -1.879  -0.759   2.774  0.00  0.00     0.003 A 
ENDROOT
TORSDOF 0
ENDMDL
