MODEL 1
REMARK minimizedAffinity 13.4850473
REMARK minimizedRMSD -1
REMARK  0 active torsions:
REMARK  status: ('A' for Active; 'I' for Inactive)
ROOT
ATOM      1  C4' PXY d   1      -2.520  -1.076  -3.137  0.00  0.00     0.077 C 
ATOM      2  C1' PXY d   1       3.216  -1.032  -3.853  0.00  0.00     0.077 C 
ATOM      3  C1  PXY d   1       1.713  -1.055  -3.659  0.00  0.00    -0.082 A 
ATOM      4  C2  PXY d   1       0.937  -0.365  -4.479  0.00  0.00     0.003 A 
ATOM      5  C3  PXY d   1      -0.423  -0.349  -4.299  0.00  0.00     0.003 A 
ATOM      6  C4  PXY d   1      -0.998  -1.089  -3.301  0.00  0.00    -0.082 A 
ATOM      7  C5  PXY d   1      -0.213  -1.804  -2.467  0.00  0.00     0.003 A 
ATOM      8  C6  PXY d   1       1.167  -1.774  -2.641  0.00  0.00     0.003 A 
ENDROOT
TORSDOF 0
ENDMDL
