MODEL 1
REMARK minimizedAffinity 15.4806032
REMARK minimizedRMSD -1
REMARK  0 active torsions:
REMARK  status: ('A' for Active; 'I' for Inactive)
ROOT
ATOM      1  C4' PXY d   1       2.898   0.024  -4.064  0.00  0.00     0.077 C 
ATOM      2  C1' PXY d   1      -2.512  -1.842  -3.246  0.00  0.00     0.077 C 
ATOM      3  C1  PXY d   1      -1.093  -1.359  -3.472  0.00  0.00    -0.082 A 
ATOM      4  C2  PXY d   1      -0.334  -1.047  -2.434  0.00  0.00     0.003 A 
ATOM      5  C3  PXY d   1       0.940  -0.578  -2.621  0.00  0.00     0.003 A 
ATOM      6  C4  PXY d   1       1.462  -0.477  -3.883  0.00  0.00    -0.082 A 
ATOM      7  C5  PXY d   1       0.699  -0.803  -4.947  0.00  0.00     0.003 A 
ATOM      8  C6  PXY d   1      -0.607  -1.238  -4.737  0.00  0.00     0.003 A 
ENDROOT
TORSDOF 0
ENDMDL
