MODEL 1
REMARK minimizedAffinity -4.35284424
REMARK minimizedRMSD -1
REMARK  1 active torsions:
REMARK  status: ('A' for Active; 'I' for Inactive)
REMARK    1  A    between atoms: N_2  and  C1_3 
ROOT
ATOM      1  C1  UNL d   1       0.592  -0.118   0.214  0.00  0.00     0.143 A 
ATOM      2  C2  UNL d   1       1.084   0.578   1.323  0.00  0.00    -0.057 A 
ATOM      3  C3  UNL d   1       0.498   0.438   2.587  0.00  0.00     0.033 A 
ATOM      4  C4  UNL d   1      -0.612  -0.383   2.758  0.00  0.00    -0.042 A 
ATOM      5  C5  UNL d   1      -1.133  -1.066   1.665  0.00  0.00     0.033 A 
ATOM      6  C6  UNL d   1      -0.539  -0.927   0.407  0.00  0.00    -0.057 A 
ENDROOT
BRANCH   1   7
ATOM      7  N   UNL d   1       1.069   0.055  -1.088  0.00  0.00    -0.732 N 
ATOM      8  C   UNL d   1       0.647  -0.831  -2.152  0.00  0.00     0.284 C 
ATOM      9  H3  UNL d   1       1.116   1.035  -1.357  0.00  0.00     0.395 HD
ENDBRANCH   1   7
TORSDOF 1
ENDMDL
