MODEL 1
REMARK minimizedAffinity -4.34995937
REMARK minimizedRMSD -1
REMARK  1 active torsions:
REMARK  status: ('A' for Active; 'I' for Inactive)
REMARK    1  A    between atoms: N_2  and  C1_3 
ROOT
ATOM      1  C1  UNL d   1      -0.157  -0.313   0.643  0.00  0.00     0.143 A 
ATOM      2  C2  UNL d   1      -1.444  -0.108   1.151  0.00  0.00    -0.057 A 
ATOM      3  C3  UNL d   1      -1.718  -0.257   2.516  0.00  0.00     0.033 A 
ATOM      4  C4  UNL d   1      -0.712  -0.643   3.395  0.00  0.00    -0.042 A 
ATOM      5  C5  UNL d   1       0.569  -0.876   2.909  0.00  0.00     0.033 A 
ATOM      6  C6  UNL d   1       0.838  -0.719   1.546  0.00  0.00    -0.057 A 
ENDROOT
BRANCH   1   7
ATOM      7  N   UNL d   1       0.157  -0.276  -0.718  0.00  0.00    -0.732 N 
ATOM      8  C   UNL d   1       0.366  -1.502  -1.459  0.00  0.00     0.284 C 
ATOM      9  H3  UNL d   1      -0.378   0.428  -1.221  0.00  0.00     0.395 HD
ENDBRANCH   1   7
TORSDOF 1
ENDMDL
