MODEL 1
REMARK minimizedAffinity -4.20499849
REMARK minimizedRMSD -1
REMARK  1 active torsions:
REMARK  status: ('A' for Active; 'I' for Inactive)
REMARK    1  A    between atoms: N_2  and  C1_3 
ROOT
ATOM      1  C1  UNL d   1       0.272  -0.379  -0.140  0.00  0.00     0.143 A 
ATOM      2  C2  UNL d   1       1.354  -0.153   0.718  0.00  0.00    -0.057 A 
ATOM      3  C3  UNL d   1       1.181  -0.098   2.106  0.00  0.00     0.033 A 
ATOM      4  C4  UNL d   1      -0.087  -0.241   2.661  0.00  0.00    -0.042 A 
ATOM      5  C5  UNL d   1      -1.180  -0.441   1.826  0.00  0.00     0.033 A 
ATOM      6  C6  UNL d   1      -1.000  -0.501   0.441  0.00  0.00    -0.057 A 
ENDROOT
BRANCH   1   7
ATOM      7  N   UNL d   1       0.364  -0.346  -1.534  0.00  0.00    -0.732 N 
ATOM      8  C   UNL d   1       0.729  -1.533  -2.277  0.00  0.00     0.284 C 
ATOM      9  H3  UNL d   1      -0.383   0.198  -1.959  0.00  0.00     0.395 HD
ENDBRANCH   1   7
TORSDOF 1
ENDMDL
