MODEL 1
REMARK minimizedAffinity -3.66823292
REMARK minimizedRMSD -1
REMARK  1 active torsions:
REMARK  status: ('A' for Active; 'I' for Inactive)
REMARK    1  A    between atoms: N_2  and  C1_3 
ROOT
ATOM      1  C1  UNL d   1      -0.033  -0.378   0.075  0.00  0.00     0.143 A 
ATOM      2  C2  UNL d   1       1.111   0.073   0.741  0.00  0.00    -0.057 A 
ATOM      3  C3  UNL d   1       1.219  -0.008   2.135  0.00  0.00     0.033 A 
ATOM      4  C4  UNL d   1       0.169  -0.517   2.891  0.00  0.00    -0.042 A 
ATOM      5  C5  UNL d   1      -0.988  -0.948   2.252  0.00  0.00     0.033 A 
ATOM      6  C6  UNL d   1      -1.087  -0.871   0.860  0.00  0.00    -0.057 A 
ENDROOT
BRANCH   1   7
ATOM      7  N   UNL d   1      -0.241  -0.234  -1.299  0.00  0.00    -0.732 N 
ATOM      8  C   UNL d   1       0.671  -0.833  -2.250  0.00  0.00     0.284 C 
ATOM      9  H3  UNL d   1      -1.222  -0.318  -1.555  0.00  0.00     0.395 HD
ENDBRANCH   1   7
TORSDOF 1
ENDMDL
