MODEL 1
REMARK minimizedAffinity -4.87529755
REMARK minimizedRMSD -1
REMARK  1 active torsions:
REMARK  status: ('A' for Active; 'I' for Inactive)
REMARK    1  A    between atoms: N_2  and  C1_3 
ROOT
ATOM      1  C1  UNL d   1       0.122  -0.001  -0.309  0.00  0.00     0.143 A 
ATOM      2  C2  UNL d   1       1.334   0.216   0.355  0.00  0.00    -0.057 A 
ATOM      3  C3  UNL d   1       1.413   0.178   1.753  0.00  0.00     0.033 A 
ATOM      4  C4  UNL d   1       0.272  -0.050   2.514  0.00  0.00    -0.042 A 
ATOM      5  C5  UNL d   1      -0.948  -0.244   1.877  0.00  0.00     0.033 A 
ATOM      6  C6  UNL d   1      -1.020  -0.211   0.481  0.00  0.00    -0.057 A 
ENDROOT
BRANCH   1   7
ATOM      7  N   UNL d   1      -0.041   0.121  -1.691  0.00  0.00    -0.732 N 
ATOM      8  C   UNL d   1       0.736  -0.695  -2.599  0.00  0.00     0.284 C 
ATOM      9  H3  UNL d   1      -1.016   0.229  -1.959  0.00  0.00     0.395 HD
ENDBRANCH   1   7
TORSDOF 1
ENDMDL
