MODEL 1
REMARK minimizedAffinity -4.40961075
REMARK minimizedRMSD -1
REMARK  1 active torsions:
REMARK  status: ('A' for Active; 'I' for Inactive)
REMARK    1  A    between atoms: N_2  and  C1_3 
ROOT
ATOM      1  C1  UNL d   1      -0.203   0.213   0.671  0.00  0.00     0.143 A 
ATOM      2  C2  UNL d   1       0.469   0.368   1.888  0.00  0.00    -0.057 A 
ATOM      3  C3  UNL d   1      -0.102  -0.059   3.093  0.00  0.00     0.033 A 
ATOM      4  C4  UNL d   1      -1.373  -0.624   3.105  0.00  0.00    -0.042 A 
ATOM      5  C5  UNL d   1      -2.071  -0.765   1.911  0.00  0.00     0.033 A 
ATOM      6  C6  UNL d   1      -1.492  -0.343   0.710  0.00  0.00    -0.057 A 
ENDROOT
BRANCH   1   7
ATOM      7  N   UNL d   1       0.270   0.706  -0.547  0.00  0.00    -0.732 N 
ATOM      8  C   UNL d   1       0.369  -0.159  -1.704  0.00  0.00     0.284 C 
ATOM      9  H3  UNL d   1      -0.085   1.637  -0.754  0.00  0.00     0.395 HD
ENDBRANCH   1   7
TORSDOF 1
ENDMDL
