MODEL 1
REMARK minimizedAffinity -3.39534259
REMARK minimizedRMSD -1
REMARK  1 active torsions:
REMARK  status: ('A' for Active; 'I' for Inactive)
REMARK    1  A    between atoms: N_2  and  C1_3 
ROOT
ATOM      1  C1  UNL d   1      -0.843  -0.365   1.368  0.00  0.00     0.143 A 
ATOM      2  C2  UNL d   1       0.337   0.359   1.167  0.00  0.00    -0.057 A 
ATOM      3  C3  UNL d   1       0.486   1.213   0.068  0.00  0.00     0.033 A 
ATOM      4  C4  UNL d   1      -0.535   1.335  -0.869  0.00  0.00    -0.042 A 
ATOM      5  C5  UNL d   1      -1.707   0.606  -0.703  0.00  0.00     0.033 A 
ATOM      6  C6  UNL d   1      -1.852  -0.240   0.401  0.00  0.00    -0.057 A 
ENDROOT
BRANCH   1   7
ATOM      7  N   UNL d   1      -1.014  -1.305   2.388  0.00  0.00    -0.732 N 
ATOM      8  C   UNL d   1      -0.810  -0.936   3.772  0.00  0.00     0.284 C 
ATOM      9  H3  UNL d   1      -1.822  -1.904   2.232  0.00  0.00     0.395 HD
ENDBRANCH   1   7
TORSDOF 1
ENDMDL
