MODEL 1
REMARK minimizedAffinity -2.71820569
REMARK minimizedRMSD -1
REMARK  1 active torsions:
REMARK  status: ('A' for Active; 'I' for Inactive)
REMARK    1  A    between atoms: N_2  and  C1_3 
ROOT
ATOM      1  C1  UNL d   1       0.216   0.032   0.014  0.00  0.00     0.143 A 
ATOM      2  C2  UNL d   1       0.491   0.925   1.056  0.00  0.00    -0.057 A 
ATOM      3  C3  UNL d   1       0.241   0.582   2.390  0.00  0.00     0.033 A 
ATOM      4  C4  UNL d   1      -0.317  -0.653   2.705  0.00  0.00    -0.042 A 
ATOM      5  C5  UNL d   1      -0.622  -1.546   1.683  0.00  0.00     0.033 A 
ATOM      6  C6  UNL d   1      -0.364  -1.200   0.353  0.00  0.00    -0.057 A 
ENDROOT
BRANCH   1   7
ATOM      7  N   UNL d   1       0.350   0.352  -1.339  0.00  0.00    -0.732 N 
ATOM      8  C   UNL d   1       0.542  -0.688  -2.327  0.00  0.00     0.284 C 
ATOM      9  H3  UNL d   1      -0.289   1.088  -1.630  0.00  0.00     0.395 HD
ENDBRANCH   1   7
TORSDOF 1
ENDMDL
