MODEL 1
REMARK minimizedAffinity 3.64370894
REMARK minimizedRMSD -1
REMARK  1 active torsions:
REMARK  status: ('A' for Active; 'I' for Inactive)
REMARK    1  A    between atoms: N_2  and  C1_3 
ROOT
ATOM      1  C1  UNL d   1       0.501  -0.821  -1.413  0.00  0.00     0.143 A 
ATOM      2  C2  UNL d   1       0.246  -1.800  -0.447  0.00  0.00    -0.057 A 
ATOM      3  C3  UNL d   1      -0.702  -1.595   0.563  0.00  0.00     0.033 A 
ATOM      4  C4  UNL d   1      -1.394  -0.390   0.641  0.00  0.00    -0.042 A 
ATOM      5  C5  UNL d   1      -1.139   0.607  -0.294  0.00  0.00     0.033 A 
ATOM      6  C6  UNL d   1      -0.196   0.393  -1.304  0.00  0.00    -0.057 A 
ENDROOT
BRANCH   1   7
ATOM      7  N   UNL d   1       1.501  -0.927  -2.382  0.00  0.00    -0.732 N 
ATOM      8  C   UNL d   1       1.265  -1.658  -3.609  0.00  0.00     0.284 C 
ATOM      9  H3  UNL d   1       2.013  -0.056  -2.509  0.00  0.00     0.395 HD
ENDBRANCH   1   7
TORSDOF 1
ENDMDL
