MODEL 1
REMARK minimizedAffinity -0.177221403
REMARK minimizedRMSD -1
REMARK  1 active torsions:
REMARK  status: ('A' for Active; 'I' for Inactive)
REMARK    1  A    between atoms: N_2  and  C1_3 
ROOT
ATOM      1  C1  UNL d   1      -0.384   0.756   2.002  0.00  0.00     0.143 A 
ATOM      2  C2  UNL d   1       0.702   0.494   1.160  0.00  0.00    -0.057 A 
ATOM      3  C3  UNL d   1       0.524   0.302  -0.216  0.00  0.00     0.033 A 
ATOM      4  C4  UNL d   1      -0.751   0.339  -0.771  0.00  0.00    -0.042 A 
ATOM      5  C5  UNL d   1      -1.848   0.573   0.051  0.00  0.00     0.033 A 
ATOM      6  C6  UNL d   1      -1.663   0.771   1.423  0.00  0.00    -0.057 A 
ENDROOT
BRANCH   1   7
ATOM      7  N   UNL d   1      -0.284   0.859   3.391  0.00  0.00    -0.732 N 
ATOM      8  C   UNL d   1      -1.047  -0.019   4.252  0.00  0.00     0.284 C 
ATOM      9  H3  UNL d   1       0.672   1.017   3.701  0.00  0.00     0.395 HD
ENDBRANCH   1   7
TORSDOF 1
ENDMDL
