MODEL 1
REMARK minimizedAffinity -3.76772285
REMARK minimizedRMSD -1
REMARK  1 active torsions:
REMARK  status: ('A' for Active; 'I' for Inactive)
REMARK    1  A    between atoms: N_2  and  C1_3 
ROOT
ATOM      1  C1  UNL d   1      -0.031   0.087   0.068  0.00  0.00     0.143 A 
ATOM      2  C2  UNL d   1       1.046   0.591   0.805  0.00  0.00    -0.057 A 
ATOM      3  C3  UNL d   1       1.114   0.430   2.194  0.00  0.00     0.033 A 
ATOM      4  C4  UNL d   1       0.089  -0.217   2.876  0.00  0.00    -0.042 A 
ATOM      5  C5  UNL d   1      -1.003  -0.704   2.168  0.00  0.00     0.033 A 
ATOM      6  C6  UNL d   1      -1.063  -0.545   0.780  0.00  0.00    -0.057 A 
ENDROOT
BRANCH   1   7
ATOM      7  N   UNL d   1      -0.205   0.302  -1.301  0.00  0.00    -0.732 N 
ATOM      8  C   UNL d   1       0.626  -0.385  -2.267  0.00  0.00     0.284 C 
ATOM      9  H3  UNL d   1      -1.186   0.359  -1.564  0.00  0.00     0.395 HD
ENDBRANCH   1   7
TORSDOF 1
ENDMDL
