MODEL 1
REMARK minimizedAffinity 3.88574624
REMARK minimizedRMSD -1
REMARK  0 active torsions:
REMARK  status: ('A' for Active; 'I' for Inactive)
ROOT
ATOM      1  C2' OXE d   1      -3.123  -4.535  -3.631  0.00  0.00     0.078 C 
ATOM      2  C1' OXE d   1      -2.627  -5.959  -5.999  0.00  0.00     0.078 C 
ATOM      3  C1  OXE d   1      -1.446  -5.607  -5.129  0.00  0.00    -0.078 A 
ATOM      4  C2  OXE d   1      -1.693  -4.870  -3.996  0.00  0.00    -0.078 A 
ATOM      5  C3  OXE d   1      -0.646  -4.566  -3.130  0.00  0.00     0.003 A 
ATOM      6  C4  OXE d   1       0.675  -4.871  -3.480  0.00  0.00    -0.002 A 
ATOM      7  C5  OXE d   1       0.952  -5.587  -4.650  0.00  0.00    -0.002 A 
ATOM      8  C6  OXE d   1      -0.099  -5.999  -5.462  0.00  0.00     0.003 A 
ENDROOT
TORSDOF 0
ENDMDL
