MODEL 1
REMARK minimizedAffinity 13.1431742
REMARK minimizedRMSD -1
REMARK  0 active torsions:
REMARK  status: ('A' for Active; 'I' for Inactive)
ROOT
ATOM      1  C2' OXE d   1       2.412   1.707   0.759  0.00  0.00     0.078 C 
ATOM      2  C1' OXE d   1       3.223   2.356  -1.849  0.00  0.00     0.078 C 
ATOM      3  C1  OXE d   1       4.078   2.842  -0.705  0.00  0.00    -0.078 A 
ATOM      4  C2  OXE d   1       3.648   2.559   0.570  0.00  0.00    -0.078 A 
ATOM      5  C3  OXE d   1       4.427   2.936   1.659  0.00  0.00     0.003 A 
ATOM      6  C4  OXE d   1       5.564   3.733   1.476  0.00  0.00    -0.002 A 
ATOM      7  C5  OXE d   1       5.998   4.066   0.188  0.00  0.00    -0.002 A 
ATOM      8  C6  OXE d   1       5.291   3.594  -0.912  0.00  0.00     0.003 A 
ENDROOT
TORSDOF 0
ENDMDL
