MODEL 1
REMARK minimizedAffinity 13.5684757
REMARK minimizedRMSD -1
REMARK  0 active torsions:
REMARK  status: ('A' for Active; 'I' for Inactive)
ROOT
ATOM      1  C2' OXE d   1      -2.981   1.679   3.555  0.00  0.00     0.078 C 
ATOM      2  C1' OXE d   1      -4.392   0.632   1.366  0.00  0.00     0.078 C 
ATOM      3  C1  OXE d   1      -3.063   0.008   1.710  0.00  0.00    -0.078 A 
ATOM      4  C2  OXE d   1      -2.358   0.556   2.754  0.00  0.00    -0.078 A 
ATOM      5  C3  OXE d   1      -1.152  -0.016   3.147  0.00  0.00     0.003 A 
ATOM      6  C4  OXE d   1      -0.578  -1.048   2.394  0.00  0.00    -0.002 A 
ATOM      7  C5  OXE d   1      -1.261  -1.595   1.303  0.00  0.00    -0.002 A 
ATOM      8  C6  OXE d   1      -2.522  -1.109   0.975  0.00  0.00     0.003 A 
ENDROOT
TORSDOF 0
ENDMDL
