MODEL 1
REMARK minimizedAffinity 10.0040817
REMARK minimizedRMSD -1
REMARK  0 active torsions:
REMARK  status: ('A' for Active; 'I' for Inactive)
ROOT
ATOM      1  C2' OXE d   1       3.835   5.292  -2.209  0.00  0.00     0.078 C 
ATOM      2  C1' OXE d   1       2.797   3.648  -4.233  0.00  0.00     0.078 C 
ATOM      3  C1  OXE d   1       1.820   4.440  -3.401  0.00  0.00    -0.078 A 
ATOM      4  C2  OXE d   1       2.334   5.206  -2.382  0.00  0.00    -0.078 A 
ATOM      5  C3  OXE d   1       1.481   5.999  -1.619  0.00  0.00     0.003 A 
ATOM      6  C4  OXE d   1       0.094   5.906  -1.779  0.00  0.00    -0.002 A 
ATOM      7  C5  OXE d   1      -0.453   5.101  -2.785  0.00  0.00    -0.002 A 
ATOM      8  C6  OXE d   1       0.397   4.397  -3.630  0.00  0.00     0.003 A 
ENDROOT
TORSDOF 0
ENDMDL
