MODEL 1
REMARK minimizedAffinity 9.74953175
REMARK minimizedRMSD -1
REMARK  0 active torsions:
REMARK  status: ('A' for Active; 'I' for Inactive)
ROOT
ATOM      1  C2' OXE d   1       3.536   0.478   1.514  0.00  0.00     0.078 C 
ATOM      2  C1' OXE d   1       3.364   1.668  -1.022  0.00  0.00     0.078 C 
ATOM      3  C1  OXE d   1       4.312   2.280  -0.022  0.00  0.00    -0.078 A 
ATOM      4  C2  OXE d   1       4.355   1.719   1.232  0.00  0.00    -0.078 A 
ATOM      5  C3  OXE d   1       5.252   2.211   2.176  0.00  0.00     0.003 A 
ATOM      6  C4  OXE d   1       5.999   3.365   1.911  0.00  0.00    -0.002 A 
ATOM      7  C5  OXE d   1       5.940   3.975   0.654  0.00  0.00    -0.002 A 
ATOM      8  C6  OXE d   1       5.135   3.421  -0.336  0.00  0.00     0.003 A 
ENDROOT
TORSDOF 0
ENDMDL
