MODEL 1
REMARK minimizedAffinity 19.7900105
REMARK minimizedRMSD -1
REMARK  0 active torsions:
REMARK  status: ('A' for Active; 'I' for Inactive)
ROOT
ATOM      1  C2' OXE d   1      -2.698   1.658   2.441  0.00  0.00     0.078 C 
ATOM      2  C1' OXE d   1      -4.449  -0.105   1.135  0.00  0.00     0.078 C 
ATOM      3  C1  OXE d   1      -3.129  -0.653   1.617  0.00  0.00    -0.078 A 
ATOM      4  C2  OXE d   1      -2.259   0.228   2.213  0.00  0.00    -0.078 A 
ATOM      5  C3  OXE d   1      -1.051  -0.237   2.724  0.00  0.00     0.003 A 
ATOM      6  C4  OXE d   1      -0.648  -1.559   2.500  0.00  0.00    -0.002 A 
ATOM      7  C5  OXE d   1      -1.502  -2.463   1.860  0.00  0.00    -0.002 A 
ATOM      8  C6  OXE d   1      -2.761  -2.037   1.451  0.00  0.00     0.003 A 
ENDROOT
TORSDOF 0
ENDMDL
