MODEL 1
REMARK minimizedAffinity 2.3978982
REMARK minimizedRMSD -1
REMARK  0 active torsions:
REMARK  status: ('A' for Active; 'I' for Inactive)
ROOT
ATOM      1  C2' OXE d   1      -1.498   0.160   4.387  0.00  0.00     0.078 C 
ATOM      2  C1' OXE d   1      -3.655   1.933   4.097  0.00  0.00     0.078 C 
ATOM      3  C1  OXE d   1      -3.468   0.874   3.040  0.00  0.00    -0.078 A 
ATOM      4  C2  OXE d   1      -2.383   0.040   3.165  0.00  0.00    -0.078 A 
ATOM      5  C3  OXE d   1      -2.195  -0.989   2.247  0.00  0.00     0.003 A 
ATOM      6  C4  OXE d   1      -3.013  -1.086   1.114  0.00  0.00    -0.002 A 
ATOM      7  C5  OXE d   1      -4.100  -0.222   0.946  0.00  0.00    -0.002 A 
ATOM      8  C6  OXE d   1      -4.366   0.735   1.920  0.00  0.00     0.003 A 
ENDROOT
TORSDOF 0
ENDMDL
