MODEL 1
REMARK minimizedAffinity 18.8617554
REMARK minimizedRMSD -1
REMARK  0 active torsions:
REMARK  status: ('A' for Active; 'I' for Inactive)
ROOT
ATOM      1  C2' OXE d   1       5.496   4.659  -3.792  0.00  0.00     0.078 C 
ATOM      2  C1' OXE d   1       4.040   3.018  -5.543  0.00  0.00     0.078 C 
ATOM      3  C1  OXE d   1       3.339   3.523  -4.307  0.00  0.00    -0.078 A 
ATOM      4  C2  OXE d   1       4.074   4.287  -3.432  0.00  0.00    -0.078 A 
ATOM      5  C3  OXE d   1       3.460   4.824  -2.303  0.00  0.00     0.003 A 
ATOM      6  C4  OXE d   1       2.148   4.467  -1.973  0.00  0.00    -0.002 A 
ATOM      7  C5  OXE d   1       1.394   3.658  -2.830  0.00  0.00    -0.002 A 
ATOM      8  C6  OXE d   1       1.960   3.214  -4.019  0.00  0.00     0.003 A 
ENDROOT
TORSDOF 0
ENDMDL
