MODEL 1
REMARK minimizedAffinity 14.5171709
REMARK minimizedRMSD -1
REMARK  0 active torsions:
REMARK  status: ('A' for Active; 'I' for Inactive)
ROOT
ATOM      1  C2' OXE d   1       6.000   4.666  -4.768  0.00  0.00     0.078 C 
ATOM      2  C1' OXE d   1       4.486   2.648  -6.000  0.00  0.00     0.078 C 
ATOM      3  C1  OXE d   1       3.927   3.284  -4.752  0.00  0.00    -0.078 A 
ATOM      4  C2  OXE d   1       4.696   4.238  -4.130  0.00  0.00    -0.078 A 
ATOM      5  C3  OXE d   1       4.204   4.895  -3.006  0.00  0.00     0.003 A 
ATOM      6  C4  OXE d   1       3.002   4.487  -2.416  0.00  0.00    -0.002 A 
ATOM      7  C5  OXE d   1       2.222   3.489  -3.011  0.00  0.00    -0.002 A 
ATOM      8  C6  OXE d   1       2.649   2.909  -4.200  0.00  0.00     0.003 A 
ENDROOT
TORSDOF 0
ENDMDL
