MODEL 1
REMARK minimizedAffinity 18.3904972
REMARK minimizedRMSD -1
REMARK  0 active torsions:
REMARK  status: ('A' for Active; 'I' for Inactive)
ROOT
ATOM      1  C2' OXE d   1      -1.983   0.362   3.399  0.00  0.00     0.078 C 
ATOM      2  C1' OXE d   1      -2.135  -1.454   1.263  0.00  0.00     0.078 C 
ATOM      3  C1  OXE d   1      -0.970  -1.581   2.214  0.00  0.00    -0.078 A 
ATOM      4  C2  OXE d   1      -0.879  -0.659   3.229  0.00  0.00    -0.078 A 
ATOM      5  C3  OXE d   1       0.145  -0.765   4.165  0.00  0.00     0.003 A 
ATOM      6  C4  OXE d   1       1.168  -1.706   3.995  0.00  0.00    -0.002 A 
ATOM      7  C5  OXE d   1       1.115  -2.629   2.945  0.00  0.00    -0.002 A 
ATOM      8  C6  OXE d   1       0.033  -2.608   2.073  0.00  0.00     0.003 A 
ENDROOT
TORSDOF 0
ENDMDL
