MODEL 1
REMARK minimizedAffinity 15.5186243
REMARK minimizedRMSD -1
REMARK  0 active torsions:
REMARK  status: ('A' for Active; 'I' for Inactive)
ROOT
ATOM      1  C2' OXE d   1       3.516   2.996  -5.725  0.00  0.00     0.078 C 
ATOM      2  C1' OXE d   1       1.990   2.971  -3.369  0.00  0.00     0.078 C 
ATOM      3  C1  OXE d   1       3.389   3.530  -3.295  0.00  0.00    -0.078 A 
ATOM      4  C2  OXE d   1       4.145   3.496  -4.442  0.00  0.00    -0.078 A 
ATOM      5  C3  OXE d   1       5.422   4.049  -4.442  0.00  0.00     0.003 A 
ATOM      6  C4  OXE d   1       6.000   4.500  -3.249  0.00  0.00    -0.002 A 
ATOM      7  C5  OXE d   1       5.261   4.508  -2.061  0.00  0.00    -0.002 A 
ATOM      8  C6  OXE d   1       3.943   4.066  -2.076  0.00  0.00     0.003 A 
ENDROOT
TORSDOF 0
ENDMDL
