MODEL 1
REMARK minimizedAffinity 11.4642639
REMARK minimizedRMSD -1
REMARK  0 active torsions:
REMARK  status: ('A' for Active; 'I' for Inactive)
ROOT
ATOM      1  C2' OXE d   1       5.267   3.584   2.045  0.00  0.00     0.078 C 
ATOM      2  C1' OXE d   1       5.999   2.960  -0.592  0.00  0.00     0.078 C 
ATOM      3  C1  OXE d   1       4.759   2.308  -0.033  0.00  0.00    -0.078 A 
ATOM      4  C2  OXE d   1       4.435   2.583   1.274  0.00  0.00    -0.078 A 
ATOM      5  C3  OXE d   1       3.271   2.051   1.821  0.00  0.00     0.003 A 
ATOM      6  C4  OXE d   1       2.512   1.118   1.104  0.00  0.00    -0.002 A 
ATOM      7  C5  OXE d   1       2.847   0.794  -0.214  0.00  0.00    -0.002 A 
ATOM      8  C6  OXE d   1       3.941   1.411  -0.811  0.00  0.00     0.003 A 
ENDROOT
TORSDOF 0
ENDMDL
