MODEL 1
REMARK minimizedAffinity 9.13758755
REMARK minimizedRMSD -1
REMARK  0 active torsions:
REMARK  status: ('A' for Active; 'I' for Inactive)
ROOT
ATOM      1  C2' OXE d   1       3.076   2.263  -2.947  0.00  0.00     0.078 C 
ATOM      2  C1' OXE d   1       4.634   4.505  -2.297  0.00  0.00     0.078 C 
ATOM      3  C1  OXE d   1       3.134   4.663  -2.283  0.00  0.00    -0.078 A 
ATOM      4  C2  OXE d   1       2.381   3.573  -2.648  0.00  0.00    -0.078 A 
ATOM      5  C3  OXE d   1       0.992   3.648  -2.600  0.00  0.00     0.003 A 
ATOM      6  C4  OXE d   1       0.357   4.867  -2.332  0.00  0.00    -0.002 A 
ATOM      7  C5  OXE d   1       1.106   6.000  -1.997  0.00  0.00    -0.002 A 
ATOM      8  C6  OXE d   1       2.492   5.904  -1.926  0.00  0.00     0.003 A 
ENDROOT
TORSDOF 0
ENDMDL
