MODEL 1
REMARK minimizedAffinity 15.9240904
REMARK minimizedRMSD -1
REMARK  0 active torsions:
REMARK  status: ('A' for Active; 'I' for Inactive)
ROOT
ATOM      1  C2' OXE d   1       3.692  -2.029  -0.878  0.00  0.00     0.078 C 
ATOM      2  C1' OXE d   1       1.841  -4.129  -0.666  0.00  0.00     0.078 C 
ATOM      3  C1  OXE d   1       3.291  -4.440  -0.396  0.00  0.00    -0.078 A 
ATOM      4  C2  OXE d   1       4.196  -3.417  -0.547  0.00  0.00    -0.078 A 
ATOM      5  C3  OXE d   1       5.540  -3.637  -0.257  0.00  0.00     0.003 A 
ATOM      6  C4  OXE d   1       6.000  -4.926   0.038  0.00  0.00    -0.002 A 
ATOM      7  C5  OXE d   1       5.100  -5.991   0.159  0.00  0.00    -0.002 A 
ATOM      8  C6  OXE d   1       3.740  -5.756  -0.013  0.00  0.00     0.003 A 
ENDROOT
TORSDOF 0
ENDMDL
