MODEL 1
REMARK minimizedAffinity 6.97769403
REMARK minimizedRMSD -1
REMARK  0 active torsions:
REMARK  status: ('A' for Active; 'I' for Inactive)
ROOT
ATOM      1  C2' OXE d   1       3.796   3.359  -6.000  0.00  0.00     0.078 C 
ATOM      2  C1' OXE d   1       5.998   4.810  -5.038  0.00  0.00     0.078 C 
ATOM      3  C1  OXE d   1       4.825   4.617  -4.111  0.00  0.00    -0.078 A 
ATOM      4  C2  OXE d   1       3.732   3.945  -4.606  0.00  0.00    -0.078 A 
ATOM      5  C3  OXE d   1       2.645   3.692  -3.775  0.00  0.00     0.003 A 
ATOM      6  C4  OXE d   1       2.590   4.246  -2.490  0.00  0.00    -0.002 A 
ATOM      7  C5  OXE d   1       3.675   4.967  -1.981  0.00  0.00    -0.002 A 
ATOM      8  C6  OXE d   1       4.815   5.124  -2.762  0.00  0.00     0.003 A 
ENDROOT
TORSDOF 0
ENDMDL
