MODEL 1
REMARK minimizedAffinity 20.0451317
REMARK minimizedRMSD -1
REMARK  0 active torsions:
REMARK  status: ('A' for Active; 'I' for Inactive)
ROOT
ATOM      1  C2' OXE d   1      -2.939   1.555   2.880  0.00  0.00     0.078 C 
ATOM      2  C1' OXE d   1      -4.200   0.001   0.910  0.00  0.00     0.078 C 
ATOM      3  C1  OXE d   1      -2.915  -0.521   1.503  0.00  0.00    -0.078 A 
ATOM      4  C2  OXE d   1      -2.280   0.268   2.432  0.00  0.00    -0.078 A 
ATOM      5  C3  OXE d   1      -1.120  -0.191   3.049  0.00  0.00     0.003 A 
ATOM      6  C4  OXE d   1      -0.512  -1.378   2.622  0.00  0.00    -0.002 A 
ATOM      7  C5  OXE d   1      -1.121  -2.177   1.648  0.00  0.00    -0.002 A 
ATOM      8  C6  OXE d   1      -2.341  -1.785   1.110  0.00  0.00     0.003 A 
ENDROOT
TORSDOF 0
ENDMDL
