MODEL 1
REMARK minimizedAffinity -4.04341364
REMARK minimizedRMSD -1
REMARK  0 active torsions:
REMARK  status: ('A' for Active; 'I' for Inactive)
ROOT
ATOM      1  C1  BNZ d   1       1.717  -0.158   1.119  0.00  0.00     0.000 A 
ATOM      2  C2  BNZ d   1       1.013  -0.111   2.293  0.00  0.00     0.000 A 
ATOM      3  C3  BNZ d   1      -0.303   0.259   2.306  0.00  0.00     0.000 A 
ATOM      4  C4  BNZ d   1      -0.902   0.618   1.152  0.00  0.00     0.000 A 
ATOM      5  C5  BNZ d   1      -0.203   0.585  -0.038  0.00  0.00     0.000 A 
ATOM      6  C6  BNZ d   1       1.110   0.175  -0.053  0.00  0.00     0.000 A 
ENDROOT
TORSDOF 0
ENDMDL
