MODEL 1
REMARK minimizedAffinity -2.20060873
REMARK minimizedRMSD -1
REMARK  0 active torsions:
REMARK  status: ('A' for Active; 'I' for Inactive)
ROOT
ATOM      1  C1  BNZ d   1       0.671   0.023   2.527  0.00  0.00     0.000 A 
ATOM      2  C2  BNZ d   1       1.138  -0.085   1.244  0.00  0.00     0.000 A 
ATOM      3  C3  BNZ d   1       0.324   0.180   0.178  0.00  0.00     0.000 A 
ATOM      4  C4  BNZ d   1      -0.965   0.513   0.395  0.00  0.00     0.000 A 
ATOM      5  C5  BNZ d   1      -1.453   0.617   1.682  0.00  0.00     0.000 A 
ATOM      6  C6  BNZ d   1      -0.621   0.388   2.753  0.00  0.00     0.000 A 
ENDROOT
TORSDOF 0
ENDMDL
