MODEL 1
REMARK minimizedAffinity -3.19934964
REMARK minimizedRMSD -1
REMARK  0 active torsions:
REMARK  status: ('A' for Active; 'I' for Inactive)
ROOT
ATOM      1  C1  BNZ d   1       0.842  -0.077   2.553  0.00  0.00     0.000 A 
ATOM      2  C2  BNZ d   1       1.104  -0.332   1.233  0.00  0.00     0.000 A 
ATOM      3  C3  BNZ d   1       0.152  -0.115   0.276  0.00  0.00     0.000 A 
ATOM      4  C4  BNZ d   1      -1.071   0.318   0.644  0.00  0.00     0.000 A 
ATOM      5  C5  BNZ d   1      -1.353   0.571   1.972  0.00  0.00     0.000 A 
ATOM      6  C6  BNZ d   1      -0.380   0.389   2.927  0.00  0.00     0.000 A 
ENDROOT
TORSDOF 0
ENDMDL
