MODEL 1
REMARK minimizedAffinity 0.0620400235
REMARK minimizedRMSD -1
REMARK  0 active torsions:
REMARK  status: ('A' for Active; 'I' for Inactive)
ROOT
ATOM      1  C1  BNZ d   1      -1.312   0.359  -1.216  0.00  0.00     0.000 A 
ATOM      2  C2  BNZ d   1       0.004   0.069  -1.461  0.00  0.00     0.000 A 
ATOM      3  C3  BNZ d   1       0.886  -0.104  -0.432  0.00  0.00     0.000 A 
ATOM      4  C4  BNZ d   1       0.462   0.052   0.839  0.00  0.00     0.000 A 
ATOM      5  C5  BNZ d   1      -0.860   0.354   1.102  0.00  0.00     0.000 A 
ATOM      6  C6  BNZ d   1      -1.753   0.489   0.065  0.00  0.00     0.000 A 
ENDROOT
TORSDOF 0
ENDMDL
