MODEL 1
REMARK minimizedAffinity -1.69139802
REMARK minimizedRMSD -1
REMARK  0 active torsions:
REMARK  status: ('A' for Active; 'I' for Inactive)
ROOT
ATOM      1  C1  BNZ d   1      -0.869   0.435  -1.312  0.00  0.00     0.000 A 
ATOM      2  C2  BNZ d   1      -0.854   0.394   0.057  0.00  0.00     0.000 A 
ATOM      3  C3  BNZ d   1       0.103  -0.318   0.726  0.00  0.00     0.000 A 
ATOM      4  C4  BNZ d   1       1.018  -1.018   0.026  0.00  0.00     0.000 A 
ATOM      5  C5  BNZ d   1       1.011  -0.994  -1.355  0.00  0.00     0.000 A 
ATOM      6  C6  BNZ d   1       0.070  -0.246  -2.024  0.00  0.00     0.000 A 
ENDROOT
TORSDOF 0
ENDMDL
