MODEL 1
REMARK minimizedAffinity -2.80483699
REMARK minimizedRMSD -1
REMARK  0 active torsions:
REMARK  status: ('A' for Active; 'I' for Inactive)
ROOT
ATOM      1  C1  BNZ d   1       1.018  -0.905  -1.618  0.00  0.00     0.000 A 
ATOM      2  C2  BNZ d   1       0.991   0.044  -2.604  0.00  0.00     0.000 A 
ATOM      3  C3  BNZ d   1       1.272  -0.285  -3.901  0.00  0.00     0.000 A 
ATOM      4  C4  BNZ d   1       1.620  -1.553  -4.202  0.00  0.00     0.000 A 
ATOM      5  C5  BNZ d   1       1.662  -2.519  -3.217  0.00  0.00     0.000 A 
ATOM      6  C6  BNZ d   1       1.340  -2.192  -1.920  0.00  0.00     0.000 A 
ENDROOT
TORSDOF 0
ENDMDL
