MODEL 1
REMARK minimizedAffinity -2.40250111
REMARK minimizedRMSD -1
REMARK  0 active torsions:
REMARK  status: ('A' for Active; 'I' for Inactive)
ROOT
ATOM      1  C1  BNZ d   1       1.268  -0.170  -2.769  0.00  0.00     0.000 A 
ATOM      2  C2  BNZ d   1       1.562  -0.270  -1.435  0.00  0.00     0.000 A 
ATOM      3  C3  BNZ d   1       0.617   0.007  -0.487  0.00  0.00     0.000 A 
ATOM      4  C4  BNZ d   1      -0.607   0.421  -0.873  0.00  0.00     0.000 A 
ATOM      5  C5  BNZ d   1      -0.916   0.536  -2.214  0.00  0.00     0.000 A 
ATOM      6  C6  BNZ d   1       0.026   0.219  -3.165  0.00  0.00     0.000 A 
ENDROOT
TORSDOF 0
ENDMDL
