MODEL 1
REMARK minimizedAffinity -3.13672614
REMARK minimizedRMSD -1
REMARK  0 active torsions:
REMARK  status: ('A' for Active; 'I' for Inactive)
ROOT
ATOM      1  C1  BNZ d   1       0.964  -0.070   2.814  0.00  0.00     0.000 A 
ATOM      2  C2  BNZ d   1       1.656  -0.392   1.677  0.00  0.00     0.000 A 
ATOM      3  C3  BNZ d   1       1.090  -0.228   0.443  0.00  0.00     0.000 A 
ATOM      4  C4  BNZ d   1      -0.180   0.218   0.350  0.00  0.00     0.000 A 
ATOM      5  C5  BNZ d   1      -0.894   0.537   1.488  0.00  0.00     0.000 A 
ATOM      6  C6  BNZ d   1      -0.307   0.408   2.726  0.00  0.00     0.000 A 
ENDROOT
TORSDOF 0
ENDMDL
