MODEL 1
REMARK minimizedAffinity -3.49599433
REMARK minimizedRMSD -1
REMARK  0 active torsions:
REMARK  status: ('A' for Active; 'I' for Inactive)
ROOT
ATOM      1  C1  BNZ d   1       0.731   0.096   2.215  0.00  0.00     0.000 A 
ATOM      2  C2  BNZ d   1       1.310  -0.064   0.984  0.00  0.00     0.000 A 
ATOM      3  C3  BNZ d   1       0.586   0.124  -0.160  0.00  0.00     0.000 A 
ATOM      4  C4  BNZ d   1      -0.724   0.432  -0.073  0.00  0.00     0.000 A 
ATOM      5  C5  BNZ d   1      -1.324   0.587   1.161  0.00  0.00     0.000 A 
ATOM      6  C6  BNZ d   1      -0.583   0.435   2.310  0.00  0.00     0.000 A 
ENDROOT
TORSDOF 0
ENDMDL
