MODEL 1
REMARK minimizedAffinity -1.81663752
REMARK minimizedRMSD -1
REMARK  0 active torsions:
REMARK  status: ('A' for Active; 'I' for Inactive)
ROOT
ATOM      1  C1  BNZ d   1      -1.889   0.657   0.503  0.00  0.00     0.000 A 
ATOM      2  C2  BNZ d   1      -1.141   0.476  -0.630  0.00  0.00     0.000 A 
ATOM      3  C3  BNZ d   1       0.215   0.318  -0.556  0.00  0.00     0.000 A 
ATOM      4  C4  BNZ d   1       0.825   0.382   0.646  0.00  0.00     0.000 A 
ATOM      5  C5  BNZ d   1       0.085   0.574   1.796  0.00  0.00     0.000 A 
ATOM      6  C6  BNZ d   1      -1.283   0.693   1.721  0.00  0.00     0.000 A 
ENDROOT
TORSDOF 0
ENDMDL
