MODEL 1
REMARK minimizedAffinity -4.28065109
REMARK minimizedRMSD -1
REMARK  0 active torsions:
REMARK  status: ('A' for Active; 'I' for Inactive)
ROOT
ATOM      1  C1  BNZ d   1       1.551  -0.893   0.036  0.00  0.00     0.000 A 
ATOM      2  C2  BNZ d   1       2.022  -1.431  -1.132  0.00  0.00     0.000 A 
ATOM      3  C3  BNZ d   1       1.496  -1.057  -2.337  0.00  0.00     0.000 A 
ATOM      4  C4  BNZ d   1       0.473  -0.179  -2.370  0.00  0.00     0.000 A 
ATOM      5  C5  BNZ d   1      -0.019   0.365  -1.200  0.00  0.00     0.000 A 
ATOM      6  C6  BNZ d   1       0.539   0.016   0.008  0.00  0.00     0.000 A 
ENDROOT
TORSDOF 0
ENDMDL
