MODEL 1
REMARK minimizedAffinity -1.41247058
REMARK minimizedRMSD -1
REMARK  0 active torsions:
REMARK  status: ('A' for Active; 'I' for Inactive)
ROOT
ATOM      1  C1  BNZ d   1       0.480   0.083  -1.195  0.00  0.00     0.000 A 
ATOM      2  C2  BNZ d   1       1.519  -0.019  -0.309  0.00  0.00     0.000 A 
ATOM      3  C3  BNZ d   1       1.301   0.064   1.038  0.00  0.00     0.000 A 
ATOM      4  C4  BNZ d   1       0.052   0.289   1.495  0.00  0.00     0.000 A 
ATOM      5  C5  BNZ d   1      -1.005   0.403   0.613  0.00  0.00     0.000 A 
ATOM      6  C6  BNZ d   1      -0.787   0.280  -0.740  0.00  0.00     0.000 A 
ENDROOT
TORSDOF 0
ENDMDL
