MODEL 1
REMARK minimizedAffinity -2.309659
REMARK minimizedRMSD -1
REMARK  0 active torsions:
REMARK  status: ('A' for Active; 'I' for Inactive)
ROOT
ATOM      1  C1  BNZ d   1      -1.108   0.151  -0.087  0.00  0.00     0.000 A 
ATOM      2  C2  BNZ d   1       0.252  -0.004  -0.038  0.00  0.00     0.000 A 
ATOM      3  C3  BNZ d   1       0.919   0.041   1.154  0.00  0.00     0.000 A 
ATOM      4  C4  BNZ d   1       0.232   0.281   2.290  0.00  0.00     0.000 A 
ATOM      5  C5  BNZ d   1      -1.138   0.450   2.256  0.00  0.00     0.000 A 
ATOM      6  C6  BNZ d   1      -1.811   0.365   1.059  0.00  0.00     0.000 A 
ENDROOT
TORSDOF 0
ENDMDL
