MODEL 1
REMARK minimizedAffinity -4.00391626
REMARK minimizedRMSD -1
REMARK  0 active torsions:
REMARK  status: ('A' for Active; 'I' for Inactive)
ROOT
ATOM      1  C1  BNZ d   1       0.396   0.539   0.797  0.00  0.00     0.000 A 
ATOM      2  C2  BNZ d   1       1.047  -0.570   1.267  0.00  0.00     0.000 A 
ATOM      3  C3  BNZ d   1       1.395  -1.587   0.424  0.00  0.00     0.000 A 
ATOM      4  C4  BNZ d   1       1.057  -1.514  -0.879  0.00  0.00     0.000 A 
ATOM      5  C5  BNZ d   1       0.391  -0.407  -1.367  0.00  0.00     0.000 A 
ATOM      6  C6  BNZ d   1       0.077   0.633  -0.523  0.00  0.00     0.000 A 
ENDROOT
TORSDOF 0
ENDMDL
