MODEL 1
REMARK minimizedAffinity 9.28801441
REMARK minimizedRMSD -1
REMARK  3 active torsions:
REMARK  status: ('A' for Active; 'I' for Inactive)
REMARK    1  A    between atoms: C3'_2  and  C2'_3 
REMARK    2  A    between atoms: C2'_3  and  C1'_4 
REMARK    3  A    between atoms: C1'_4  and  C1_5 
ROOT
ATOM      1  C1  N4B d   1       1.487   2.246  -1.622  0.00  0.00    -0.075 A 
ATOM      2  C2  N4B d   1       2.106   1.629  -0.512  0.00  0.00     0.002 A 
ATOM      3  C3  N4B d   1       1.973   0.277  -0.316  0.00  0.00     0.002 A 
ATOM      4  C4  N4B d   1       1.213  -0.473  -1.202  0.00  0.00    -0.004 A 
ATOM      5  C5  N4B d   1       0.640   0.126  -2.285  0.00  0.00     0.002 A 
ATOM      6  C6  N4B d   1       0.769   1.484  -2.497  0.00  0.00     0.002 A 
ENDROOT
BRANCH   1   7
ATOM      7  C1' N4B d   1       1.534   3.735  -1.831  0.00  0.00     0.057 C 
BRANCH   7   8
ATOM      8  C2' N4B d   1       1.538   4.431  -0.473  0.00  0.00     0.009 C 
BRANCH   8   9
ATOM      9  C3' N4B d   1       2.147   5.821  -0.548  0.00  0.00     0.004 C 
ATOM     10  C4' N4B d   1       3.039   6.000  -1.740  0.00  0.00     0.003 C 
ENDBRANCH   8   9
ENDBRANCH   7   8
ENDBRANCH   1   7
TORSDOF 3
ENDMDL
