MODEL 1
REMARK minimizedAffinity 7.23021221
REMARK minimizedRMSD -1
REMARK  3 active torsions:
REMARK  status: ('A' for Active; 'I' for Inactive)
REMARK    1  A    between atoms: C3'_2  and  C2'_3 
REMARK    2  A    between atoms: C2'_3  and  C1'_4 
REMARK    3  A    between atoms: C1'_4  and  C1_5 
ROOT
ATOM      1  C1  N4B d   1       1.164   2.336  -0.988  0.00  0.00    -0.075 A 
ATOM      2  C2  N4B d   1       1.140   1.131  -1.725  0.00  0.00     0.002 A 
ATOM      3  C3  N4B d   1       1.512  -0.048  -1.126  0.00  0.00     0.002 A 
ATOM      4  C4  N4B d   1       1.928  -0.043   0.197  0.00  0.00    -0.004 A 
ATOM      5  C5  N4B d   1       1.924   1.121   0.909  0.00  0.00     0.002 A 
ATOM      6  C6  N4B d   1       1.549   2.312   0.321  0.00  0.00     0.002 A 
ENDROOT
BRANCH   1   7
ATOM      7  C1' N4B d   1       0.848   3.662  -1.624  0.00  0.00     0.057 C 
BRANCH   7   8
ATOM      8  C2' N4B d   1       2.077   4.563  -1.540  0.00  0.00     0.009 C 
BRANCH   8   9
ATOM      9  C3' N4B d   1       1.726   5.956  -1.046  0.00  0.00     0.004 C 
ATOM     10  C4' N4B d   1       1.455   5.999   0.428  0.00  0.00     0.003 C 
ENDBRANCH   8   9
ENDBRANCH   7   8
ENDBRANCH   1   7
TORSDOF 3
ENDMDL
