MODEL 1
REMARK minimizedAffinity 3.15697765
REMARK minimizedRMSD -1
REMARK  3 active torsions:
REMARK  status: ('A' for Active; 'I' for Inactive)
REMARK    1  A    between atoms: C3'_2  and  C2'_3 
REMARK    2  A    between atoms: C2'_3  and  C1'_4 
REMARK    3  A    between atoms: C1'_4  and  C1_5 
ROOT
ATOM      1  C1  N4B d   1       0.744  -1.296  -1.150  0.00  0.00    -0.075 A 
ATOM      2  C2  N4B d   1      -0.511  -1.757  -1.606  0.00  0.00     0.002 A 
ATOM      3  C3  N4B d   1      -0.755  -3.106  -1.696  0.00  0.00     0.002 A 
ATOM      4  C4  N4B d   1       0.241  -4.008  -1.355  0.00  0.00    -0.004 A 
ATOM      5  C5  N4B d   1       1.442  -3.554  -0.891  0.00  0.00     0.002 A 
ATOM      6  C6  N4B d   1       1.700  -2.202  -0.792  0.00  0.00     0.002 A 
ENDROOT
BRANCH   1   7
ATOM      7  C1' N4B d   1       1.087   0.168  -1.116  0.00  0.00     0.057 C 
BRANCH   7   8
ATOM      8  C2' N4B d   1       2.015   0.437   0.065  0.00  0.00     0.009 C 
BRANCH   8   9
ATOM      9  C3' N4B d   1       1.416   1.435   1.042  0.00  0.00     0.004 C 
ATOM     10  C4' N4B d   1       2.052   1.371   2.399  0.00  0.00     0.003 C 
ENDBRANCH   8   9
ENDBRANCH   7   8
ENDBRANCH   1   7
TORSDOF 3
ENDMDL
