MODEL 1
REMARK minimizedAffinity 4.27008677
REMARK minimizedRMSD -1
REMARK  3 active torsions:
REMARK  status: ('A' for Active; 'I' for Inactive)
REMARK    1  A    between atoms: C3'_2  and  C2'_3 
REMARK    2  A    between atoms: C2'_3  and  C1'_4 
REMARK    3  A    between atoms: C1'_4  and  C1_5 
ROOT
ATOM      1  C1  N4B d   1       1.497   1.882  -0.586  0.00  0.00    -0.075 A 
ATOM      2  C2  N4B d   1       2.181   0.674  -0.324  0.00  0.00     0.002 A 
ATOM      3  C3  N4B d   1       2.550   0.358   0.960  0.00  0.00     0.002 A 
ATOM      4  C4  N4B d   1       2.265   1.240   1.992  0.00  0.00    -0.004 A 
ATOM      5  C5  N4B d   1       1.583   2.393   1.735  0.00  0.00     0.002 A 
ATOM      6  C6  N4B d   1       1.201   2.721   0.449  0.00  0.00     0.002 A 
ENDROOT
BRANCH   1   7
ATOM      7  C1' N4B d   1       1.149   2.310  -1.985  0.00  0.00     0.057 C 
BRANCH   7   8
ATOM      8  C2' N4B d   1       0.974   3.826  -2.016  0.00  0.00     0.009 C 
BRANCH   8   9
ATOM      9  C3' N4B d   1       2.267   4.553  -1.690  0.00  0.00     0.004 C 
ATOM     10  C4' N4B d   1       2.036   5.909  -1.092  0.00  0.00     0.003 C 
ENDBRANCH   8   9
ENDBRANCH   7   8
ENDBRANCH   1   7
TORSDOF 3
ENDMDL
