MODEL 1
REMARK minimizedAffinity -1.82829177
REMARK minimizedRMSD -1
REMARK  3 active torsions:
REMARK  status: ('A' for Active; 'I' for Inactive)
REMARK    1  A    between atoms: C3'_2  and  C2'_3 
REMARK    2  A    between atoms: C2'_3  and  C1'_4 
REMARK    3  A    between atoms: C1'_4  and  C1_5 
ROOT
ATOM      1  C1  N4B d   1       1.227   2.270  -1.361  0.00  0.00    -0.075 A 
ATOM      2  C2  N4B d   1       1.785   2.140  -0.071  0.00  0.00     0.002 A 
ATOM      3  C3  N4B d   1       1.762   0.924   0.568  0.00  0.00     0.002 A 
ATOM      4  C4  N4B d   1       1.172  -0.166  -0.053  0.00  0.00    -0.004 A 
ATOM      5  C5  N4B d   1       0.658  -0.038  -1.310  0.00  0.00     0.002 A 
ATOM      6  C6  N4B d   1       0.678   1.176  -1.966  0.00  0.00     0.002 A 
ENDROOT
BRANCH   1   7
ATOM      7  C1' N4B d   1       1.152   3.597  -2.064  0.00  0.00     0.057 C 
BRANCH   7   8
ATOM      8  C2' N4B d   1       2.337   4.458  -1.636  0.00  0.00     0.009 C 
BRANCH   8   9
ATOM      9  C3' N4B d   1       1.890   5.752  -0.976  0.00  0.00     0.004 C 
ATOM     10  C4' N4B d   1       1.689   5.609   0.504  0.00  0.00     0.003 C 
ENDBRANCH   8   9
ENDBRANCH   7   8
ENDBRANCH   1   7
TORSDOF 3
ENDMDL
