MODEL 1
REMARK minimizedAffinity 4.91206932
REMARK minimizedRMSD -1
REMARK  3 active torsions:
REMARK  status: ('A' for Active; 'I' for Inactive)
REMARK    1  A    between atoms: C3'_2  and  C2'_3 
REMARK    2  A    between atoms: C2'_3  and  C1'_4 
REMARK    3  A    between atoms: C1'_4  and  C1_5 
ROOT
ATOM      1  C1  N4B d   1       1.860   1.875  -0.777  0.00  0.00    -0.075 A 
ATOM      2  C2  N4B d   1       2.650   0.727  -1.005  0.00  0.00     0.002 A 
ATOM      3  C3  N4B d   1       3.342   0.152   0.033  0.00  0.00     0.002 A 
ATOM      4  C4  N4B d   1       3.275   0.716   1.298  0.00  0.00    -0.004 A 
ATOM      5  C5  N4B d   1       2.490   1.810   1.515  0.00  0.00     0.002 A 
ATOM      6  C6  N4B d   1       1.786   2.396   0.483  0.00  0.00     0.002 A 
ENDROOT
BRANCH   1   7
ATOM      7  C1' N4B d   1       1.155   2.589  -1.897  0.00  0.00     0.057 C 
BRANCH   7   8
ATOM      8  C2' N4B d   1       0.618   3.922  -1.382  0.00  0.00     0.009 C 
BRANCH   8   9
ATOM      9  C3' N4B d   1       1.642   5.036  -1.518  0.00  0.00     0.004 C 
ATOM     10  C4' N4B d   1       1.606   6.000  -0.369  0.00  0.00     0.003 C 
ENDBRANCH   8   9
ENDBRANCH   7   8
ENDBRANCH   1   7
TORSDOF 3
ENDMDL
