MODEL 1
REMARK minimizedAffinity 6.4111352
REMARK minimizedRMSD -1
REMARK  3 active torsions:
REMARK  status: ('A' for Active; 'I' for Inactive)
REMARK    1  A    between atoms: C3'_2  and  C2'_3 
REMARK    2  A    between atoms: C2'_3  and  C1'_4 
REMARK    3  A    between atoms: C1'_4  and  C1_5 
ROOT
ATOM      1  C1  N4B d   1       0.772   1.910   0.626  0.00  0.00    -0.075 A 
ATOM      2  C2  N4B d   1       1.522   0.746   0.902  0.00  0.00     0.002 A 
ATOM      3  C3  N4B d   1       1.851  -0.116  -0.116  0.00  0.00     0.002 A 
ATOM      4  C4  N4B d   1       1.426   0.154  -1.408  0.00  0.00    -0.004 A 
ATOM      5  C5  N4B d   1       0.724   1.294  -1.670  0.00  0.00     0.002 A 
ATOM      6  C6  N4B d   1       0.390   2.172  -0.658  0.00  0.00     0.002 A 
ENDROOT
BRANCH   1   7
ATOM      7  C1' N4B d   1       0.315   2.838   1.718  0.00  0.00     0.057 C 
BRANCH   7   8
ATOM      8  C2' N4B d   1      -0.666   2.100   2.624  0.00  0.00     0.009 C 
BRANCH   8   9
ATOM      9  C3' N4B d   1      -1.969   2.864   2.791  0.00  0.00     0.004 C 
ATOM     10  C4' N4B d   1      -2.397   2.975   4.224  0.00  0.00     0.003 C 
ENDBRANCH   8   9
ENDBRANCH   7   8
ENDBRANCH   1   7
TORSDOF 3
ENDMDL
