MODEL 1
REMARK minimizedAffinity 2.01186061
REMARK minimizedRMSD -1
REMARK  3 active torsions:
REMARK  status: ('A' for Active; 'I' for Inactive)
REMARK    1  A    between atoms: C3'_2  and  C2'_3 
REMARK    2  A    between atoms: C2'_3  and  C1'_4 
REMARK    3  A    between atoms: C1'_4  and  C1_5 
ROOT
ATOM      1  C1  N4B d   1       1.442   0.427   0.014  0.00  0.00    -0.075 A 
ATOM      2  C2  N4B d   1       2.662  -0.164   0.408  0.00  0.00     0.002 A 
ATOM      3  C3  N4B d   1       3.374   0.365   1.457  0.00  0.00     0.002 A 
ATOM      4  C4  N4B d   1       2.897   1.492   2.111  0.00  0.00    -0.004 A 
ATOM      5  C5  N4B d   1       1.705   2.041   1.740  0.00  0.00     0.002 A 
ATOM      6  C6  N4B d   1       0.977   1.518   0.690  0.00  0.00     0.002 A 
ENDROOT
BRANCH   1   7
ATOM      7  C1' N4B d   1       0.672  -0.064  -1.182  0.00  0.00     0.057 C 
BRANCH   7   8
ATOM      8  C2' N4B d   1       0.062   1.131  -1.909  0.00  0.00     0.009 C 
BRANCH   8   9
ATOM      9  C3' N4B d   1       1.121   1.996  -2.569  0.00  0.00     0.004 C 
ATOM     10  C4' N4B d   1       1.046   3.432  -2.143  0.00  0.00     0.003 C 
ENDBRANCH   8   9
ENDBRANCH   7   8
ENDBRANCH   1   7
TORSDOF 3
ENDMDL
