MODEL 1
REMARK minimizedAffinity 6.59880114
REMARK minimizedRMSD -1
REMARK  3 active torsions:
REMARK  status: ('A' for Active; 'I' for Inactive)
REMARK    1  A    between atoms: C3'_2  and  C2'_3 
REMARK    2  A    between atoms: C2'_3  and  C1'_4 
REMARK    3  A    between atoms: C1'_4  and  C1_5 
ROOT
ATOM      1  C1  N4B d   1       1.166   2.389  -0.505  0.00  0.00    -0.075 A 
ATOM      2  C2  N4B d   1       0.360   2.292  -1.660  0.00  0.00     0.002 A 
ATOM      3  C3  N4B d   1       0.148   1.070  -2.249  0.00  0.00     0.002 A 
ATOM      4  C4  N4B d   1       0.745  -0.062  -1.715  0.00  0.00    -0.004 A 
ATOM      5  C5  N4B d   1       1.502   0.036  -0.584  0.00  0.00     0.002 A 
ATOM      6  C6  N4B d   1       1.720   1.257   0.021  0.00  0.00     0.002 A 
ENDROOT
BRANCH   1   7
ATOM      7  C1' N4B d   1       1.497   3.714   0.125  0.00  0.00     0.057 C 
BRANCH   7   8
ATOM      8  C2' N4B d   1       1.286   4.823  -0.902  0.00  0.00     0.009 C 
BRANCH   8   9
ATOM      9  C3' N4B d   1       2.217   6.000  -0.667  0.00  0.00     0.004 C 
ATOM     10  C4' N4B d   1       3.399   5.999  -1.590  0.00  0.00     0.003 C 
ENDBRANCH   8   9
ENDBRANCH   7   8
ENDBRANCH   1   7
TORSDOF 3
ENDMDL
