MODEL 1
REMARK minimizedAffinity 3.45650673
REMARK minimizedRMSD -1
REMARK  1 active torsions:
REMARK  status: ('A' for Active; 'I' for Inactive)
REMARK    1  A    between atoms: C1_2  and  C2_3 
ROOT
ATOM      1  C2  UNL d   1      -0.186   2.153  -1.444  0.00  0.00    -0.073 A 
ATOM      2  C3  UNL d   1      -0.905   3.281  -1.855  0.00  0.00    -0.002 A 
ATOM      3  C4  UNL d   1      -1.566   4.076  -0.918  0.00  0.00     0.004 A 
ATOM      4  C5  UNL d   1      -1.509   3.756   0.439  0.00  0.00    -0.004 A 
ATOM      5  C6  UNL d   1      -0.785   2.640   0.870  0.00  0.00    -0.075 A 
ATOM      6  C7  UNL d   1      -0.715   2.281   2.325  0.00  0.00     0.076 C 
ATOM      7  C8  UNL d   1      -0.126   1.845  -0.078  0.00  0.00     0.001 A 
ENDROOT
BRANCH   1   8
ATOM      8  C1  UNL d   1       0.535   1.296  -2.452  0.00  0.00     0.053 C 
ATOM      9  C   UNL d   1       0.976  -0.032  -1.859  0.00  0.00     0.018 C 
ENDBRANCH   1   8
TORSDOF 1
ENDMDL
