MODEL 1
REMARK minimizedAffinity -1.04625857
REMARK minimizedRMSD -1
REMARK  1 active torsions:
REMARK  status: ('A' for Active; 'I' for Inactive)
REMARK    1  A    between atoms: C1_2  and  C2_3 
ROOT
ATOM      1  C2  UNL d   1      -1.389   4.110   0.946  0.00  0.00    -0.073 A 
ATOM      2  C3  UNL d   1      -2.155   3.093   1.528  0.00  0.00    -0.002 A 
ATOM      3  C4  UNL d   1      -1.573   2.200   2.428  0.00  0.00     0.004 A 
ATOM      4  C5  UNL d   1      -0.223   2.318   2.761  0.00  0.00    -0.004 A 
ATOM      5  C6  UNL d   1       0.556   3.334   2.199  0.00  0.00    -0.075 A 
ATOM      6  C7  UNL d   1       2.009   3.473   2.545  0.00  0.00     0.076 C 
ATOM      7  C8  UNL d   1      -0.036   4.226   1.294  0.00  0.00     0.001 A 
ENDROOT
BRANCH   1   8
ATOM      8  C1  UNL d   1      -2.015   5.081  -0.022  0.00  0.00     0.053 C 
ATOM      9  C   UNL d   1      -3.018   5.998   0.660  0.00  0.00     0.018 C 
ENDBRANCH   1   8
TORSDOF 1
ENDMDL
