MODEL 1
REMARK minimizedAffinity 0.495384574
REMARK minimizedRMSD -1
REMARK  1 active torsions:
REMARK  status: ('A' for Active; 'I' for Inactive)
REMARK    1  A    between atoms: C1_2  and  C2_3 
ROOT
ATOM      1  C2  UNL d   1      -0.199   3.120   1.672  0.00  0.00    -0.073 A 
ATOM      2  C3  UNL d   1      -1.348   3.915   1.593  0.00  0.00    -0.002 A 
ATOM      3  C4  UNL d   1      -2.181   3.842   0.476  0.00  0.00     0.004 A 
ATOM      4  C5  UNL d   1      -1.879   2.969  -0.569  0.00  0.00    -0.004 A 
ATOM      5  C6  UNL d   1      -0.742   2.157  -0.503  0.00  0.00    -0.075 A 
ATOM      6  C7  UNL d   1      -0.402   1.214  -1.620  0.00  0.00     0.076 C 
ATOM      7  C8  UNL d   1       0.091   2.239   0.620  0.00  0.00     0.001 A 
ENDROOT
BRANCH   1   8
ATOM      8  C1  UNL d   1       0.700   3.191   2.879  0.00  0.00     0.053 C 
ATOM      9  C   UNL d   1       1.934   4.043   2.621  0.00  0.00     0.018 C 
ENDBRANCH   1   8
TORSDOF 1
ENDMDL
