MODEL 1
REMARK minimizedAffinity 5.67658138
REMARK minimizedRMSD -1
REMARK  1 active torsions:
REMARK  status: ('A' for Active; 'I' for Inactive)
REMARK    1  A    between atoms: C1_2  and  C2_3 
ROOT
ATOM      1  C2  UNL d   1       1.690  -1.173   2.911  0.00  0.00    -0.073 A 
ATOM      2  C3  UNL d   1       2.089  -1.336   1.579  0.00  0.00    -0.002 A 
ATOM      3  C4  UNL d   1       1.518  -0.556   0.572  0.00  0.00     0.004 A 
ATOM      4  C5  UNL d   1       0.550   0.398   0.886  0.00  0.00    -0.004 A 
ATOM      5  C6  UNL d   1       0.147   0.583   2.213  0.00  0.00    -0.075 A 
ATOM      6  C7  UNL d   1      -0.894   1.604   2.567  0.00  0.00     0.076 C 
ATOM      7  C8  UNL d   1       0.723  -0.205   3.218  0.00  0.00     0.001 A 
ENDROOT
BRANCH   1   8
ATOM      8  C1  UNL d   1       2.307  -2.009   4.002  0.00  0.00     0.053 C 
ATOM      9  C   UNL d   1       3.827  -1.990   3.944  0.00  0.00     0.018 C 
ENDBRANCH   1   8
TORSDOF 1
ENDMDL
