MODEL 1
REMARK minimizedAffinity 1.73001397
REMARK minimizedRMSD -1
REMARK  0 active torsions:
REMARK  status: ('A' for Active; 'I' for Inactive)
ROOT
ATOM      1  C4' PXY d   1       1.128   0.375  -2.740  0.00  0.00     0.077 C 
ATOM      2  C1' PXY d   1      -1.688   0.175   2.304  0.00  0.00     0.077 C 
ATOM      3  C1  PXY d   1      -0.939   0.222   0.987  0.00  0.00    -0.082 A 
ATOM      4  C2  PXY d   1      -1.301   1.093   0.059  0.00  0.00     0.003 A 
ATOM      5  C3  PXY d   1      -0.655   1.128  -1.150  0.00  0.00     0.003 A 
ATOM      6  C4  PXY d   1       0.406   0.298  -1.392  0.00  0.00    -0.082 A 
ATOM      7  C5  PXY d   1       0.789  -0.586  -0.446  0.00  0.00     0.003 A 
ATOM      8  C6  PXY d   1       0.094  -0.634   0.759  0.00  0.00     0.003 A 
ENDROOT
TORSDOF 0
ENDMDL
