MODEL 1
REMARK minimizedAffinity 4.08089018
REMARK minimizedRMSD -1
REMARK  0 active torsions:
REMARK  status: ('A' for Active; 'I' for Inactive)
ROOT
ATOM      1  C4' PXY d   1       3.510   0.119   0.214  0.00  0.00     0.077 C 
ATOM      2  C1' PXY d   1      -2.242  -0.185  -0.273  0.00  0.00     0.077 C 
ATOM      3  C1  PXY d   1      -0.733  -0.101  -0.158  0.00  0.00    -0.082 A 
ATOM      4  C2  PXY d   1      -0.106  -0.825   0.755  0.00  0.00     0.003 A 
ATOM      5  C3  PXY d   1       1.256  -0.738   0.894  0.00  0.00     0.003 A 
ATOM      6  C4  PXY d   1       1.988   0.059   0.055  0.00  0.00    -0.082 A 
ATOM      7  C5  PXY d   1       1.356   0.793  -0.886  0.00  0.00     0.003 A 
ATOM      8  C6  PXY d   1      -0.030   0.721  -0.984  0.00  0.00     0.003 A 
ENDROOT
TORSDOF 0
ENDMDL
