MODEL 1
REMARK minimizedAffinity -1.99923944
REMARK minimizedRMSD -1
REMARK  0 active torsions:
REMARK  status: ('A' for Active; 'I' for Inactive)
ROOT
ATOM      1  C4' PXY d   1       0.303   1.153  -4.115  0.00  0.00     0.077 C 
ATOM      2  C1' PXY d   1       1.856  -0.668   1.147  0.00  0.00     0.077 C 
ATOM      3  C1  PXY d   1       1.455  -0.180  -0.231  0.00  0.00    -0.082 A 
ATOM      4  C2  PXY d   1       0.357  -0.651  -0.799  0.00  0.00     0.003 A 
ATOM      5  C3  PXY d   1      -0.003  -0.244  -2.058  0.00  0.00     0.003 A 
ATOM      6  C4  PXY d   1       0.741   0.695  -2.721  0.00  0.00    -0.082 A 
ATOM      7  C5  PXY d   1       1.857   1.189  -2.145  0.00  0.00     0.003 A 
ATOM      8  C6  PXY d   1       2.228   0.732  -0.883  0.00  0.00     0.003 A 
ENDROOT
TORSDOF 0
ENDMDL
