MODEL 1
REMARK minimizedAffinity 9.01913452
REMARK minimizedRMSD -1
REMARK  0 active torsions:
REMARK  status: ('A' for Active; 'I' for Inactive)
ROOT
ATOM      1  C4' PXY d   1      -1.483  -0.522  -4.950  0.00  0.00     0.077 C 
ATOM      2  C1' PXY d   1       3.291   1.840  -2.702  0.00  0.00     0.077 C 
ATOM      3  C1  PXY d   1       2.040   1.211  -3.283  0.00  0.00    -0.082 A 
ATOM      4  C2  PXY d   1       1.715   1.445  -4.544  0.00  0.00     0.003 A 
ATOM      5  C3  PXY d   1       0.570   0.910  -5.076  0.00  0.00     0.003 A 
ATOM      6  C4  PXY d   1      -0.223   0.084  -4.324  0.00  0.00    -0.082 A 
ATOM      7  C5  PXY d   1       0.107  -0.167  -3.040  0.00  0.00     0.003 A 
ATOM      8  C6  PXY d   1       1.251   0.419  -2.507  0.00  0.00     0.003 A 
ENDROOT
TORSDOF 0
ENDMDL
