MODEL 1
REMARK minimizedAffinity -0.00185178092
REMARK minimizedRMSD -1
REMARK  0 active torsions:
REMARK  status: ('A' for Active; 'I' for Inactive)
ROOT
ATOM      1  C4' PXY d   1       2.691  -0.922   1.102  0.00  0.00     0.077 C 
ATOM      2  C1' PXY d   1      -2.647   1.032   2.154  0.00  0.00     0.077 C 
ATOM      3  C1  PXY d   1      -1.251   0.514   1.867  0.00  0.00    -0.082 A 
ATOM      4  C2  PXY d   1      -0.385   0.384   2.859  0.00  0.00     0.003 A 
ATOM      5  C3  PXY d   1       0.891  -0.053   2.613  0.00  0.00     0.003 A 
ATOM      6  C4  PXY d   1       1.268  -0.411   1.346  0.00  0.00    -0.082 A 
ATOM      7  C5  PXY d   1       0.387  -0.292   0.331  0.00  0.00     0.003 A 
ATOM      8  C6  PXY d   1      -0.891   0.193   0.595  0.00  0.00     0.003 A 
ENDROOT
TORSDOF 0
ENDMDL
