MODEL 1
REMARK minimizedAffinity -3.46426797
REMARK minimizedRMSD -1
REMARK  0 active torsions:
REMARK  status: ('A' for Active; 'I' for Inactive)
ROOT
ATOM      1  C4' PXY d   1       1.584  -0.239   2.227  0.00  0.00     0.077 C 
ATOM      2  C1' PXY d   1      -3.710   0.356  -0.017  0.00  0.00     0.077 C 
ATOM      3  C1  PXY d   1      -2.318   0.194   0.561  0.00  0.00    -0.082 A 
ATOM      4  C2  PXY d   1      -2.146   0.227   1.872  0.00  0.00     0.003 A 
ATOM      5  C3  PXY d   1      -0.890   0.114   2.410  0.00  0.00     0.003 A 
ATOM      6  C4  PXY d   1       0.195  -0.089   1.600  0.00  0.00    -0.082 A 
ATOM      7  C5  PXY d   1       0.027  -0.135   0.262  0.00  0.00     0.003 A 
ATOM      8  C6  PXY d   1      -1.251   0.023  -0.267  0.00  0.00     0.003 A 
ENDROOT
TORSDOF 0
ENDMDL
