MODEL 1
REMARK minimizedAffinity -4.26253223
REMARK minimizedRMSD -1
REMARK  0 active torsions:
REMARK  status: ('A' for Active; 'I' for Inactive)
ROOT
ATOM      1  C4' PXY d   1       2.396   0.095   1.414  0.00  0.00     0.077 C 
ATOM      2  C1' PXY d   1       0.189  -0.345  -3.911  0.00  0.00     0.077 C 
ATOM      3  C1  PXY d   1       0.780  -0.233  -2.519  0.00  0.00    -0.082 A 
ATOM      4  C2  PXY d   1      -0.005  -0.370  -1.463  0.00  0.00     0.003 A 
ATOM      5  C3  PXY d   1       0.506  -0.239  -0.198  0.00  0.00     0.003 A 
ATOM      6  C4  PXY d   1       1.845  -0.020  -0.010  0.00  0.00    -0.082 A 
ATOM      7  C5  PXY d   1       2.654   0.110  -1.083  0.00  0.00     0.003 A 
ATOM      8  C6  PXY d   1       2.108   0.016  -2.360  0.00  0.00     0.003 A 
ENDROOT
TORSDOF 0
ENDMDL
