MODEL 1
REMARK minimizedAffinity -5.3344326
REMARK minimizedRMSD -1
REMARK  0 active torsions:
REMARK  status: ('A' for Active; 'I' for Inactive)
ROOT
ATOM      1  C4' PXY d   1       0.388   0.375  -1.437  0.00  0.00     0.077 C 
ATOM      2  C1' PXY d   1      -0.198   0.768   4.300  0.00  0.00     0.077 C 
ATOM      3  C1  PXY d   1      -0.031   0.667   2.797  0.00  0.00    -0.082 A 
ATOM      4  C2  PXY d   1      -1.064   0.913   2.007  0.00  0.00     0.003 A 
ATOM      5  C3  PXY d   1      -0.939   0.795   0.646  0.00  0.00     0.003 A 
ATOM      6  C4  PXY d   1       0.269   0.474   0.086  0.00  0.00    -0.082 A 
ATOM      7  C5  PXY d   1       1.329   0.232   0.885  0.00  0.00     0.003 A 
ATOM      8  C6  PXY d   1       1.171   0.317   2.266  0.00  0.00     0.003 A 
ENDROOT
TORSDOF 0
ENDMDL
