MODEL 1
REMARK minimizedAffinity -5.28205347
REMARK minimizedRMSD -1
REMARK  0 active torsions:
REMARK  status: ('A' for Active; 'I' for Inactive)
ROOT
ATOM      1  C4' PXY d   1       0.080  -0.769  -2.093  0.00  0.00     0.077 C 
ATOM      2  C1' PXY d   1      -0.517   1.404   3.230  0.00  0.00     0.077 C 
ATOM      3  C1  PXY d   1      -0.373   0.829   1.835  0.00  0.00    -0.082 A 
ATOM      4  C2  PXY d   1       0.834   0.588   1.349  0.00  0.00     0.003 A 
ATOM      5  C3  PXY d   1       0.984   0.098   0.077  0.00  0.00     0.003 A 
ATOM      6  C4  PXY d   1      -0.114  -0.198  -0.686  0.00  0.00    -0.082 A 
ATOM      7  C5  PXY d   1      -1.349   0.036  -0.193  0.00  0.00     0.003 A 
ATOM      8  C6  PXY d   1      -1.478   0.572   1.085  0.00  0.00     0.003 A 
ENDROOT
TORSDOF 0
ENDMDL
