MODEL 1
REMARK minimizedAffinity -2.00730634
REMARK minimizedRMSD -1
REMARK  0 active torsions:
REMARK  status: ('A' for Active; 'I' for Inactive)
ROOT
ATOM      1  C4' PXY d   1      -0.455   0.678   3.076  0.00  0.00     0.077 C 
ATOM      2  C1' PXY d   1       0.481  -0.510  -2.503  0.00  0.00     0.077 C 
ATOM      3  C1  PXY d   1       0.229  -0.188  -1.043  0.00  0.00    -0.082 A 
ATOM      4  C2  PXY d   1       1.041  -0.671  -0.117  0.00  0.00     0.003 A 
ATOM      5  C3  PXY d   1       0.810  -0.415   1.210  0.00  0.00     0.003 A 
ATOM      6  C4  PXY d   1      -0.233   0.387   1.590  0.00  0.00    -0.082 A 
ATOM      7  C5  PXY d   1      -1.060   0.892   0.650  0.00  0.00     0.003 A 
ATOM      8  C6  PXY d   1      -0.832   0.587  -0.689  0.00  0.00     0.003 A 
ENDROOT
TORSDOF 0
ENDMDL
