MODEL 1
REMARK minimizedAffinity 15.3692532
REMARK minimizedRMSD -1
REMARK  2 active torsions:
REMARK  status: ('A' for Active; 'I' for Inactive)
REMARK    1  A    between atoms: C2'_3  and  C1'_4 
REMARK    2  A    between atoms: C1'_4  and  C1_5 
ROOT
ATOM      1  C1  I4B d   1       0.935   0.612   0.265  0.00  0.00    -0.075 A 
ATOM      2  C2  I4B d   1      -0.279   1.144  -0.090  0.00  0.00     0.003 A 
ATOM      3  C3  I4B d   1      -1.366   1.110   0.817  0.00  0.00     0.002 A 
ATOM      4  C4  I4B d   1      -1.209   0.492   2.041  0.00  0.00    -0.004 A 
ATOM      5  C5  I4B d   1       0.029  -0.027   2.409  0.00  0.00     0.002 A 
ATOM      6  C6  I4B d   1       1.112   0.044   1.520  0.00  0.00     0.003 A 
ENDROOT
BRANCH   1   7
ATOM      7  C1' I4B d   1       2.051   0.636  -0.730  0.00  0.00     0.060 C 
BRANCH   7   8
ATOM      8  C2' I4B d   1       3.265  -0.003  -0.086  0.00  0.00    -0.013 C 
ATOM      9  C4' I4B d   1       3.386  -1.454  -0.470  0.00  0.00     0.013 C 
ATOM     10  C3' I4B d   1       4.476   0.773  -0.511  0.00  0.00     0.013 C 
ENDBRANCH   7   8
ENDBRANCH   1   7
TORSDOF 2
ENDMDL
