MODEL 1
REMARK minimizedAffinity 5.51891947
REMARK minimizedRMSD -1
REMARK  2 active torsions:
REMARK  status: ('A' for Active; 'I' for Inactive)
REMARK    1  A    between atoms: C2'_3  and  C1'_4 
REMARK    2  A    between atoms: C1'_4  and  C1_5 
ROOT
ATOM      1  C1  I4B d   1       4.660   1.719  -0.455  0.00  0.00    -0.075 A 
ATOM      2  C2  I4B d   1       4.664   3.032  -0.853  0.00  0.00     0.003 A 
ATOM      3  C3  I4B d   1       5.356   4.005  -0.092  0.00  0.00     0.002 A 
ATOM      4  C4  I4B d   1       5.984   3.632   1.079  0.00  0.00    -0.004 A 
ATOM      5  C5  I4B d   1       5.998   2.296   1.468  0.00  0.00     0.002 A 
ATOM      6  C6  I4B d   1       5.342   1.331   0.690  0.00  0.00     0.003 A 
ENDROOT
BRANCH   1   7
ATOM      7  C1' I4B d   1       3.891   0.723  -1.265  0.00  0.00     0.060 C 
BRANCH   7   8
ATOM      8  C2' I4B d   1       3.015  -0.072  -0.318  0.00  0.00    -0.013 C 
ATOM      9  C4' I4B d   1       1.731   0.658  -0.021  0.00  0.00     0.013 C 
ATOM     10  C3' I4B d   1       2.746  -1.406  -0.946  0.00  0.00     0.013 C 
ENDBRANCH   7   8
ENDBRANCH   1   7
TORSDOF 2
ENDMDL
