MODEL 1
REMARK minimizedAffinity 4.74720335
REMARK minimizedRMSD -1
REMARK  2 active torsions:
REMARK  status: ('A' for Active; 'I' for Inactive)
REMARK    1  A    between atoms: C2'_3  and  C1'_4 
REMARK    2  A    between atoms: C1'_4  and  C1_5 
ROOT
ATOM      1  C1  I4B d   1       5.278   2.431  -0.301  0.00  0.00    -0.075 A 
ATOM      2  C2  I4B d   1       5.963   1.499  -1.040  0.00  0.00     0.003 A 
ATOM      3  C3  I4B d   1       5.319   0.311  -1.462  0.00  0.00     0.002 A 
ATOM      4  C4  I4B d   1       4.013   0.074  -1.083  0.00  0.00    -0.004 A 
ATOM      5  C5  I4B d   1       3.314   1.031  -0.353  0.00  0.00     0.002 A 
ATOM      6  C6  I4B d   1       3.946   2.223   0.030  0.00  0.00     0.003 A 
ENDROOT
BRANCH   1   7
ATOM      7  C1' I4B d   1       5.999   3.659   0.157  0.00  0.00     0.060 C 
BRANCH   7   8
ATOM      8  C2' I4B d   1       5.280   4.864  -0.416  0.00  0.00    -0.013 C 
ATOM      9  C4' I4B d   1       5.223   5.990   0.582  0.00  0.00     0.013 C 
ATOM     10  C3' I4B d   1       5.998   5.282  -1.664  0.00  0.00     0.013 C 
ENDBRANCH   7   8
ENDBRANCH   1   7
TORSDOF 2
ENDMDL
