MODEL 1
REMARK minimizedAffinity 12.0965633
REMARK minimizedRMSD -1
REMARK  2 active torsions:
REMARK  status: ('A' for Active; 'I' for Inactive)
REMARK    1  A    between atoms: C2'_3  and  C1'_4 
REMARK    2  A    between atoms: C1'_4  and  C1_5 
ROOT
ATOM      1  C1  I4B d   1      -1.153   1.228  -0.300  0.00  0.00    -0.075 A 
ATOM      2  C2  I4B d   1      -2.384   0.708  -0.615  0.00  0.00     0.003 A 
ATOM      3  C3  I4B d   1      -2.627   0.185  -1.908  0.00  0.00     0.002 A 
ATOM      4  C4  I4B d   1      -1.634   0.247  -2.864  0.00  0.00    -0.004 A 
ATOM      5  C5  I4B d   1      -0.379   0.753  -2.537  0.00  0.00     0.002 A 
ATOM      6  C6  I4B d   1      -0.133   1.236  -1.243  0.00  0.00     0.003 A 
ENDROOT
BRANCH   1   7
ATOM      7  C1' I4B d   1      -0.941   1.802   1.065  0.00  0.00     0.060 C 
BRANCH   7   8
ATOM      8  C2' I4B d   1      -1.388   3.249   1.037  0.00  0.00    -0.013 C 
ATOM      9  C4' I4B d   1      -2.818   3.387   1.488  0.00  0.00     0.013 C 
ATOM     10  C3' I4B d   1      -0.464   4.036   1.918  0.00  0.00     0.013 C 
ENDBRANCH   7   8
ENDBRANCH   1   7
TORSDOF 2
ENDMDL
