MODEL 1
REMARK minimizedAffinity 17.9374619
REMARK minimizedRMSD -1
REMARK  2 active torsions:
REMARK  status: ('A' for Active; 'I' for Inactive)
REMARK    1  A    between atoms: C2'_3  and  C1'_4 
REMARK    2  A    between atoms: C1'_4  and  C1_5 
ROOT
ATOM      1  C1  I4B d   1       1.860   0.455   0.440  0.00  0.00    -0.075 A 
ATOM      2  C2  I4B d   1       1.531   0.720   1.746  0.00  0.00     0.003 A 
ATOM      3  C3  I4B d   1       0.319   1.382   2.055  0.00  0.00     0.002 A 
ATOM      4  C4  I4B d   1      -0.506   1.803   1.032  0.00  0.00    -0.004 A 
ATOM      5  C5  I4B d   1      -0.183   1.513  -0.290  0.00  0.00     0.002 A 
ATOM      6  C6  I4B d   1       1.002   0.824  -0.588  0.00  0.00     0.003 A 
ENDROOT
BRANCH   1   7
ATOM      7  C1' I4B d   1       3.164  -0.216   0.147  0.00  0.00     0.060 C 
BRANCH   7   8
ATOM      8  C2' I4B d   1       3.241  -0.455  -1.348  0.00  0.00    -0.013 C 
ATOM      9  C4' I4B d   1       4.482   0.163  -1.936  0.00  0.00     0.013 C 
ATOM     10  C3' I4B d   1       3.211  -1.936  -1.582  0.00  0.00     0.013 C 
ENDBRANCH   7   8
ENDBRANCH   1   7
TORSDOF 2
ENDMDL
