MODEL 1
REMARK minimizedAffinity 17.1207504
REMARK minimizedRMSD -1
REMARK  2 active torsions:
REMARK  status: ('A' for Active; 'I' for Inactive)
REMARK    1  A    between atoms: C2'_3  and  C1'_4 
REMARK    2  A    between atoms: C1'_4  and  C1_5 
ROOT
ATOM      1  C1  I4B d   1       5.935   3.169  -0.773  0.00  0.00    -0.075 A 
ATOM      2  C2  I4B d   1       5.992   3.667   0.505  0.00  0.00     0.003 A 
ATOM      3  C3  I4B d   1       5.997   5.065   0.725  0.00  0.00     0.002 A 
ATOM      4  C4  I4B d   1       5.996   5.924  -0.356  0.00  0.00    -0.004 A 
ATOM      5  C5  I4B d   1       5.916   5.417  -1.650  0.00  0.00     0.002 A 
ATOM      6  C6  I4B d   1       5.872   4.031  -1.860  0.00  0.00     0.003 A 
ENDROOT
BRANCH   1   7
ATOM      7  C1' I4B d   1       5.964   1.686  -0.971  0.00  0.00     0.060 C 
BRANCH   7   8
ATOM      8  C2' I4B d   1       5.215   1.047   0.181  0.00  0.00    -0.013 C 
ATOM      9  C4' I4B d   1       5.559   1.709   1.489  0.00  0.00     0.013 C 
ATOM     10  C3' I4B d   1       3.747   1.148  -0.108  0.00  0.00     0.013 C 
ENDBRANCH   7   8
ENDBRANCH   1   7
TORSDOF 2
ENDMDL
