MODEL 1
REMARK minimizedAffinity 10.0590591
REMARK minimizedRMSD -1
REMARK  0 active torsions:
REMARK  status: ('A' for Active; 'I' for Inactive)
ROOT
ATOM      1  C1  DEN d   1      -1.754  -0.171   5.271  0.00  0.00     0.130 A 
ATOM      2  C2  DEN d   1      -2.958   0.421   5.847  0.00  0.00    -0.031 A 
ATOM      3  C3  DEN d   1      -3.947   0.591   4.763  0.00  0.00     0.027 A 
ATOM      4  C4  DEN d   1      -3.732  -0.006   2.263  0.00  0.00     0.027 A 
ATOM      5  C5  DEN d   1      -2.893  -0.520   1.300  0.00  0.00    -0.003 A 
ATOM      6  C6  DEN d   1      -1.614  -0.919   1.584  0.00  0.00     0.001 A 
ATOM      7  C7  DEN d   1      -1.152  -0.853   2.872  0.00  0.00     0.017 A 
ATOM      8  C8  DEN d   1      -1.990  -0.328   3.847  0.00  0.00    -0.094 A 
ATOM      9  C9  DEN d   1      -3.284   0.059   3.542  0.00  0.00    -0.072 A 
ENDROOT
TORSDOF 0
ENDMDL
