MODEL 1
REMARK minimizedAffinity 12.7576408
REMARK minimizedRMSD -1
REMARK  0 active torsions:
REMARK  status: ('A' for Active; 'I' for Inactive)
ROOT
ATOM      1  C1  DEN d   1      -2.066  -3.252   1.158  0.00  0.00     0.130 A 
ATOM      2  C2  DEN d   1      -3.287  -3.836   1.705  0.00  0.00    -0.031 A 
ATOM      3  C3  DEN d   1      -3.943  -2.816   2.549  0.00  0.00     0.027 A 
ATOM      4  C4  DEN d   1      -3.192  -0.401   3.053  0.00  0.00     0.027 A 
ATOM      5  C5  DEN d   1      -2.214   0.542   2.824  0.00  0.00    -0.003 A 
ATOM      6  C6  DEN d   1      -1.110   0.277   2.057  0.00  0.00     0.001 A 
ATOM      7  C7  DEN d   1      -0.980  -0.946   1.455  0.00  0.00     0.017 A 
ATOM      8  C8  DEN d   1      -1.958  -1.904   1.687  0.00  0.00    -0.094 A 
ATOM      9  C9  DEN d   1      -3.072  -1.613   2.456  0.00  0.00    -0.072 A 
ENDROOT
TORSDOF 0
ENDMDL
