MODEL 1
REMARK minimizedAffinity 4.38740683
REMARK minimizedRMSD -1
REMARK  0 active torsions:
REMARK  status: ('A' for Active; 'I' for Inactive)
ROOT
ATOM      1  C1  DEN d   1      -1.576   4.588  -3.809  0.00  0.00     0.130 A 
ATOM      2  C2  DEN d   1      -0.705   4.899  -4.940  0.00  0.00    -0.031 A 
ATOM      3  C3  DEN d   1      -1.533   5.508  -6.000  0.00  0.00     0.027 A 
ATOM      4  C4  DEN d   1      -4.065   6.000  -5.999  0.00  0.00     0.027 A 
ATOM      5  C5  DEN d   1      -5.228   5.901  -5.267  0.00  0.00    -0.003 A 
ATOM      6  C6  DEN d   1      -5.260   5.331  -4.022  0.00  0.00     0.001 A 
ATOM      7  C7  DEN d   1      -4.099   4.879  -3.452  0.00  0.00     0.017 A 
ATOM      8  C8  DEN d   1      -2.925   4.968  -4.187  0.00  0.00    -0.094 A 
ATOM      9  C9  DEN d   1      -2.910   5.559  -5.439  0.00  0.00    -0.072 A 
ENDROOT
TORSDOF 0
ENDMDL
