MODEL 1
REMARK minimizedAffinity 12.376688
REMARK minimizedRMSD -1
REMARK  0 active torsions:
REMARK  status: ('A' for Active; 'I' for Inactive)
ROOT
ATOM      1  C1  DEN d   1       3.202  -0.236   1.478  0.00  0.00     0.130 A 
ATOM      2  C2  DEN d   1       4.345   0.642   1.242  0.00  0.00    -0.031 A 
ATOM      3  C3  DEN d   1       5.244  -0.027   0.280  0.00  0.00     0.027 A 
ATOM      4  C4  DEN d   1       4.976  -2.323  -0.865  0.00  0.00     0.027 A 
ATOM      5  C5  DEN d   1       4.174  -3.438  -0.970  0.00  0.00    -0.003 A 
ATOM      6  C6  DEN d   1       3.019  -3.577  -0.247  0.00  0.00     0.001 A 
ATOM      7  C7  DEN d   1       2.609  -2.565   0.580  0.00  0.00     0.017 A 
ATOM      8  C8  DEN d   1       3.416  -1.441   0.697  0.00  0.00    -0.094 A 
ATOM      9  C9  DEN d   1       4.574  -1.313  -0.051  0.00  0.00    -0.072 A 
ENDROOT
TORSDOF 0
ENDMDL
