MODEL 1
REMARK minimizedAffinity -2.34919834
REMARK minimizedRMSD -1
REMARK  0 active torsions:
REMARK  status: ('A' for Active; 'I' for Inactive)
ROOT
ATOM      1  C1  DEN d   1      -3.798  -0.749   2.347  0.00  0.00     0.130 A 
ATOM      2  C2  DEN d   1      -4.886  -1.675   2.650  0.00  0.00    -0.031 A 
ATOM      3  C3  DEN d   1      -5.281  -1.470   4.058  0.00  0.00     0.027 A 
ATOM      4  C4  DEN d   1      -4.321   0.185   5.788  0.00  0.00     0.027 A 
ATOM      5  C5  DEN d   1      -3.380   1.168   5.999  0.00  0.00    -0.003 A 
ATOM      6  C6  DEN d   1      -2.496   1.554   5.026  0.00  0.00     0.001 A 
ATOM      7  C7  DEN d   1      -2.566   0.985   3.782  0.00  0.00     0.017 A 
ATOM      8  C8  DEN d   1      -3.508  -0.012   3.563  0.00  0.00    -0.094 A 
ATOM      9  C9  DEN d   1      -4.400  -0.379   4.556  0.00  0.00    -0.072 A 
ENDROOT
TORSDOF 0
ENDMDL
