MODEL 1
REMARK minimizedAffinity 3.71031475
REMARK minimizedRMSD -1
REMARK  0 active torsions:
REMARK  status: ('A' for Active; 'I' for Inactive)
ROOT
ATOM      1  C1  DEN d   1      -5.074  -1.134   2.914  0.00  0.00     0.130 A 
ATOM      2  C2  DEN d   1      -5.640  -0.418   4.054  0.00  0.00    -0.031 A 
ATOM      3  C3  DEN d   1      -4.568   0.399   4.658  0.00  0.00     0.027 A 
ATOM      4  C4  DEN d   1      -2.101   0.626   3.940  0.00  0.00     0.027 A 
ATOM      5  C5  DEN d   1      -1.152   0.203   3.036  0.00  0.00    -0.003 A 
ATOM      6  C6  DEN d   1      -1.432  -0.713   2.057  0.00  0.00     0.001 A 
ATOM      7  C7  DEN d   1      -2.705  -1.203   1.931  0.00  0.00     0.017 A 
ATOM      8  C8  DEN d   1      -3.666  -0.787   2.843  0.00  0.00    -0.094 A 
ATOM      9  C9  DEN d   1      -3.366   0.149   3.818  0.00  0.00    -0.072 A 
ENDROOT
TORSDOF 0
ENDMDL
