MODEL 1
REMARK minimizedAffinity 11.2610235
REMARK minimizedRMSD -1
REMARK  0 active torsions:
REMARK  status: ('A' for Active; 'I' for Inactive)
ROOT
ATOM      1  C1  DEN d   1      -4.571  -1.088   2.818  0.00  0.00     0.130 A 
ATOM      2  C2  DEN d   1      -5.752  -1.661   3.458  0.00  0.00    -0.031 A 
ATOM      3  C3  DEN d   1      -5.850  -1.103   4.821  0.00  0.00     0.027 A 
ATOM      4  C4  DEN d   1      -4.298   0.588   5.998  0.00  0.00     0.027 A 
ATOM      5  C5  DEN d   1      -3.158   1.348   5.861  0.00  0.00    -0.003 A 
ATOM      6  C6  DEN d   1      -2.396   1.325   4.722  0.00  0.00     0.001 A 
ATOM      7  C7  DEN d   1      -2.791   0.558   3.658  0.00  0.00     0.017 A 
ATOM      8  C8  DEN d   1      -3.935  -0.217   3.791  0.00  0.00    -0.094 A 
ATOM      9  C9  DEN d   1      -4.698  -0.170   4.945  0.00  0.00    -0.072 A 
ENDROOT
TORSDOF 0
ENDMDL
