MODEL 1
REMARK minimizedAffinity 3.64940476
REMARK minimizedRMSD -1
REMARK  0 active torsions:
REMARK  status: ('A' for Active; 'I' for Inactive)
ROOT
ATOM      1  C1  DEN d   1      -2.676   1.115   6.000  0.00  0.00     0.130 A 
ATOM      2  C2  DEN d   1      -1.491   1.211   5.151  0.00  0.00    -0.031 A 
ATOM      3  C3  DEN d   1      -1.833   0.658   3.825  0.00  0.00     0.027 A 
ATOM      4  C4  DEN d   1      -4.072  -0.327   3.006  0.00  0.00     0.027 A 
ATOM      5  C5  DEN d   1      -5.364  -0.632   3.371  0.00  0.00    -0.003 A 
ATOM      6  C6  DEN d   1      -5.838  -0.409   4.637  0.00  0.00     0.001 A 
ATOM      7  C7  DEN d   1      -5.025   0.176   5.572  0.00  0.00     0.017 A 
ATOM      8  C8  DEN d   1      -3.718   0.479   5.214  0.00  0.00    -0.094 A 
ATOM      9  C9  DEN d   1      -3.263   0.257   3.926  0.00  0.00    -0.072 A 
ENDROOT
TORSDOF 0
ENDMDL
