MODEL 1
REMARK minimizedAffinity 4.48232269
REMARK minimizedRMSD -1
REMARK  0 active torsions:
REMARK  status: ('A' for Active; 'I' for Inactive)
ROOT
ATOM      1  C1  DEN d   1      -4.652   4.499  -2.739  0.00  0.00     0.130 A 
ATOM      2  C2  DEN d   1      -5.999   4.908  -3.127  0.00  0.00    -0.031 A 
ATOM      3  C3  DEN d   1      -5.913   5.572  -4.444  0.00  0.00     0.027 A 
ATOM      4  C4  DEN d   1      -3.837   5.999  -5.913  0.00  0.00     0.027 A 
ATOM      5  C5  DEN d   1      -2.471   5.843  -5.999  0.00  0.00    -0.003 A 
ATOM      6  C6  DEN d   1      -1.738   5.264  -4.997  0.00  0.00     0.001 A 
ATOM      7  C7  DEN d   1      -2.373   4.778  -3.885  0.00  0.00     0.017 A 
ATOM      8  C8  DEN d   1      -3.749   4.938  -3.788  0.00  0.00    -0.094 A 
ATOM      9  C9  DEN d   1      -4.474   5.515  -4.817  0.00  0.00    -0.072 A 
ENDROOT
TORSDOF 0
ENDMDL
