MODEL 1
REMARK minimizedAffinity -2.95709753
REMARK minimizedRMSD -1
REMARK  0 active torsions:
REMARK  status: ('A' for Active; 'I' for Inactive)
ROOT
ATOM      1  C1  DEN d   1      -3.292   0.652   5.907  0.00  0.00     0.130 A 
ATOM      2  C2  DEN d   1      -2.171   1.319   5.251  0.00  0.00    -0.031 A 
ATOM      3  C3  DEN d   1      -2.023   0.742   3.900  0.00  0.00     0.027 A 
ATOM      4  C4  DEN d   1      -3.417  -1.107   2.764  0.00  0.00     0.027 A 
ATOM      5  C5  DEN d   1      -4.467  -1.983   2.930  0.00  0.00    -0.003 A 
ATOM      6  C6  DEN d   1      -5.171  -2.066   4.102  0.00  0.00     0.001 A 
ATOM      7  C7  DEN d   1      -4.863  -1.226   5.139  0.00  0.00     0.017 A 
ATOM      8  C8  DEN d   1      -3.801  -0.345   4.982  0.00  0.00    -0.094 A 
ATOM      9  C9  DEN d   1      -3.109  -0.268   3.785  0.00  0.00    -0.072 A 
ENDROOT
TORSDOF 0
ENDMDL
