MODEL 1
REMARK minimizedAffinity 9.16569901
REMARK minimizedRMSD -1
REMARK  0 active torsions:
REMARK  status: ('A' for Active; 'I' for Inactive)
ROOT
ATOM      1  C1  DEN d   1      -2.048   5.943  -5.918  0.00  0.00     0.130 A 
ATOM      2  C2  DEN d   1      -1.097   5.450  -4.925  0.00  0.00    -0.031 A 
ATOM      3  C3  DEN d   1      -1.864   4.842  -3.820  0.00  0.00     0.027 A 
ATOM      4  C4  DEN d   1      -4.419   4.612  -3.552  0.00  0.00     0.027 A 
ATOM      5  C5  DEN d   1      -5.638   4.890  -4.130  0.00  0.00    -0.003 A 
ATOM      6  C6  DEN d   1      -5.746   5.562  -5.318  0.00  0.00     0.001 A 
ATOM      7  C7  DEN d   1      -4.613   5.941  -5.990  0.00  0.00     0.017 A 
ATOM      8  C8  DEN d   1      -3.381   5.671  -5.409  0.00  0.00    -0.094 A 
ATOM      9  C9  DEN d   1      -3.292   4.979  -4.213  0.00  0.00    -0.072 A 
ENDROOT
TORSDOF 0
ENDMDL
