MODEL 1
REMARK minimizedAffinity 9.96125889
REMARK minimizedRMSD -1
REMARK  0 active torsions:
REMARK  status: ('A' for Active; 'I' for Inactive)
ROOT
ATOM      1  C1  DEN d   1      -1.558   0.754   5.307  0.00  0.00     0.130 A 
ATOM      2  C2  DEN d   1      -2.901   0.865   5.868  0.00  0.00    -0.031 A 
ATOM      3  C3  DEN d   1      -3.852   0.299   4.890  0.00  0.00     0.027 A 
ATOM      4  C4  DEN d   1      -3.376  -0.737   2.576  0.00  0.00     0.027 A 
ATOM      5  C5  DEN d   1      -2.390  -1.041   1.664  0.00  0.00    -0.003 A 
ATOM      6  C6  DEN d   1      -1.073  -0.739   1.885  0.00  0.00     0.001 A 
ATOM      7  C7  DEN d   1      -0.699  -0.155   3.066  0.00  0.00     0.017 A 
ATOM      8  C8  DEN d   1      -1.688   0.160   3.988  0.00  0.00    -0.094 A 
ATOM      9  C9  DEN d   1      -3.013  -0.164   3.751  0.00  0.00    -0.072 A 
ENDROOT
TORSDOF 0
ENDMDL
