MODEL 1
REMARK minimizedAffinity 8.1409893
REMARK minimizedRMSD -1
REMARK  0 active torsions:
REMARK  status: ('A' for Active; 'I' for Inactive)
ROOT
ATOM      1  C1  DEN d   1      -1.724  -0.015   5.482  0.00  0.00     0.130 A 
ATOM      2  C2  DEN d   1      -2.988   0.517   5.984  0.00  0.00    -0.031 A 
ATOM      3  C3  DEN d   1      -3.919   0.633   4.844  0.00  0.00     0.027 A 
ATOM      4  C4  DEN d   1      -3.530   0.039   2.364  0.00  0.00     0.027 A 
ATOM      5  C5  DEN d   1      -2.611  -0.436   1.455  0.00  0.00    -0.003 A 
ATOM      6  C6  DEN d   1      -1.332  -0.769   1.814  0.00  0.00     0.001 A 
ATOM      7  C7  DEN d   1      -0.950  -0.674   3.126  0.00  0.00     0.017 A 
ATOM      8  C8  DEN d   1      -1.869  -0.190   4.048  0.00  0.00    -0.094 A 
ATOM      9  C9  DEN d   1      -3.161   0.130   3.667  0.00  0.00    -0.072 A 
ENDROOT
TORSDOF 0
ENDMDL
