MODEL 1
REMARK minimizedAffinity 14.1366796
REMARK minimizedRMSD -1
REMARK  0 active torsions:
REMARK  status: ('A' for Active; 'I' for Inactive)
ROOT
ATOM      1  C1  DEN d   1       0.452   0.139   0.673  0.00  0.00     0.130 A 
ATOM      2  C2  DEN d   1       0.502   1.521   1.145  0.00  0.00    -0.031 A 
ATOM      3  C3  DEN d   1      -0.661   1.745   2.026  0.00  0.00     0.027 A 
ATOM      4  C4  DEN d   1      -2.523   0.095   2.706  0.00  0.00     0.027 A 
ATOM      5  C5  DEN d   1      -2.999  -1.188   2.549  0.00  0.00    -0.003 A 
ATOM      6  C6  DEN d   1      -2.382  -2.101   1.735  0.00  0.00     0.001 A 
ATOM      7  C7  DEN d   1      -1.227  -1.757   1.083  0.00  0.00     0.017 A 
ATOM      8  C8  DEN d   1      -0.746  -0.463   1.231  0.00  0.00    -0.094 A 
ATOM      9  C9  DEN d   1      -1.377   0.441   2.068  0.00  0.00    -0.072 A 
ENDROOT
TORSDOF 0
ENDMDL
