MODEL 1
REMARK minimizedAffinity 10.486495
REMARK minimizedRMSD -1
REMARK  0 active torsions:
REMARK  status: ('A' for Active; 'I' for Inactive)
ROOT
ATOM      1  C1  DEN d   1       4.706   3.767  -0.630  0.00  0.00     0.130 A 
ATOM      2  C2  DEN d   1       5.995   4.260  -1.108  0.00  0.00    -0.031 A 
ATOM      3  C3  DEN d   1       5.998   4.176  -2.582  0.00  0.00     0.027 A 
ATOM      4  C4  DEN d   1       4.141   3.339  -4.164  0.00  0.00     0.027 A 
ATOM      5  C5  DEN d   1       2.870   2.810  -4.222  0.00  0.00    -0.003 A 
ATOM      6  C6  DEN d   1       2.142   2.534  -3.096  0.00  0.00     0.001 A 
ATOM      7  C7  DEN d   1       2.661   2.827  -1.863  0.00  0.00     0.017 A 
ATOM      8  C8  DEN d   1       3.944   3.354  -1.795  0.00  0.00    -0.094 A 
ATOM      9  C9  DEN d   1       4.660   3.637  -2.946  0.00  0.00    -0.072 A 
ENDROOT
TORSDOF 0
ENDMDL
