MODEL 1
REMARK minimizedAffinity 10.7335157
REMARK minimizedRMSD -1
REMARK  0 active torsions:
REMARK  status: ('A' for Active; 'I' for Inactive)
ROOT
ATOM      1  C1  DEN d   1      -4.299   5.660  -3.285  0.00  0.00     0.130 A 
ATOM      2  C2  DEN d   1      -5.222   5.965  -4.374  0.00  0.00    -0.031 A 
ATOM      3  C3  DEN d   1      -4.450   5.999  -5.632  0.00  0.00     0.027 A 
ATOM      4  C4  DEN d   1      -1.927   5.606  -5.998  0.00  0.00     0.027 A 
ATOM      5  C5  DEN d   1      -0.732   5.328  -5.372  0.00  0.00    -0.003 A 
ATOM      6  C6  DEN d   1      -0.637   5.175  -4.014  0.00  0.00     0.001 A 
ATOM      7  C7  DEN d   1      -1.765   5.256  -3.241  0.00  0.00     0.017 A 
ATOM      8  C8  DEN d   1      -2.972   5.544  -3.864  0.00  0.00    -0.094 A 
ATOM      9  C9  DEN d   1      -3.050   5.682  -5.240  0.00  0.00    -0.072 A 
ENDROOT
TORSDOF 0
ENDMDL
