MODEL 1
REMARK minimizedAffinity 6.24298668
REMARK minimizedRMSD -1
REMARK  0 active torsions:
REMARK  status: ('A' for Active; 'I' for Inactive)
ROOT
ATOM      1  C1  DEN d   1      -4.190  -2.202   2.979  0.00  0.00     0.130 A 
ATOM      2  C2  DEN d   1      -5.622  -2.058   2.733  0.00  0.00    -0.031 A 
ATOM      3  C3  DEN d   1      -5.998  -0.661   3.032  0.00  0.00     0.027 A 
ATOM      4  C4  DEN d   1      -4.509   1.282   3.843  0.00  0.00     0.027 A 
ATOM      5  C5  DEN d   1      -3.229   1.640   4.204  0.00  0.00    -0.003 A 
ATOM      6  C6  DEN d   1      -2.195   0.741   4.216  0.00  0.00     0.001 A 
ATOM      7  C7  DEN d   1      -2.414  -0.550   3.815  0.00  0.00     0.017 A 
ATOM      8  C8  DEN d   1      -3.703  -0.920   3.456  0.00  0.00    -0.094 A 
ATOM      9  C9  DEN d   1      -4.732   0.006   3.439  0.00  0.00    -0.072 A 
ENDROOT
TORSDOF 0
ENDMDL
