MODEL 1
REMARK minimizedAffinity -3.47888255
REMARK minimizedRMSD -1
REMARK  0 active torsions:
REMARK  status: ('A' for Active; 'I' for Inactive)
ROOT
ATOM      1  C   UNL d   1       1.011  -1.248   2.548  0.00  0.00     0.023 A 
ATOM      2  C1  UNL d   1      -0.354  -0.977   2.456  0.00  0.00     0.003 A 
ATOM      3  C2  UNL d   1      -0.869  -0.359   1.314  0.00  0.00     0.048 A 
ATOM      4  C3  UNL d   1      -0.014  -0.017   0.268  0.00  0.00     0.023 A 
ATOM      5  C4  UNL d   1       1.353  -0.288   0.355  0.00  0.00     0.048 A 
ATOM      6  C5  UNL d   1       1.864  -0.904   1.499  0.00  0.00     0.003 A 
ATOM      7  I   UNL d   1      -0.778   0.901  -1.433  0.00  0.00    -0.146 I 
ENDROOT
TORSDOF 0
ENDMDL
