MODEL 1
REMARK minimizedAffinity -1.64027512
REMARK minimizedRMSD -1
REMARK  0 active torsions:
REMARK  status: ('A' for Active; 'I' for Inactive)
ROOT
ATOM      1  C   UNL d   1       0.417  -1.026   2.492  0.00  0.00     0.023 A 
ATOM      2  C1  UNL d   1      -0.832  -0.449   2.261  0.00  0.00     0.003 A 
ATOM      3  C2  UNL d   1      -1.102   0.168   1.038  0.00  0.00     0.048 A 
ATOM      4  C3  UNL d   1      -0.119   0.204   0.050  0.00  0.00     0.023 A 
ATOM      5  C4  UNL d   1       1.132  -0.373   0.276  0.00  0.00     0.048 A 
ATOM      6  C5  UNL d   1       1.397  -0.988   1.501  0.00  0.00     0.003 A 
ATOM      7  I   UNL d   1      -0.519   1.122  -1.771  0.00  0.00    -0.146 I 
ENDROOT
TORSDOF 0
ENDMDL
