MODEL 1
REMARK minimizedAffinity -2.63856649
REMARK minimizedRMSD -1
REMARK  0 active torsions:
REMARK  status: ('A' for Active; 'I' for Inactive)
ROOT
ATOM      1  C   UNL d   1       0.482  -1.349   2.035  0.00  0.00     0.023 A 
ATOM      2  C1  UNL d   1      -0.545  -0.408   1.976  0.00  0.00     0.003 A 
ATOM      3  C2  UNL d   1      -0.723   0.363   0.825  0.00  0.00     0.048 A 
ATOM      4  C3  UNL d   1       0.130   0.187  -0.264  0.00  0.00     0.023 A 
ATOM      5  C4  UNL d   1       1.159  -0.755  -0.210  0.00  0.00     0.048 A 
ATOM      6  C5  UNL d   1       1.334  -1.523   0.943  0.00  0.00     0.003 A 
ATOM      7  I   UNL d   1      -0.132   1.333  -1.977  0.00  0.00    -0.146 I 
ENDROOT
TORSDOF 0
ENDMDL
