MODEL 1
REMARK minimizedAffinity -4.21865606
REMARK minimizedRMSD -1
REMARK  0 active torsions:
REMARK  status: ('A' for Active; 'I' for Inactive)
ROOT
ATOM      1  C   UNL d   1       2.702  -2.007   2.279  0.00  0.00     0.023 A 
ATOM      2  C1  UNL d   1       2.734  -2.190   0.896  0.00  0.00     0.003 A 
ATOM      3  C2  UNL d   1       1.848  -1.487   0.077  0.00  0.00     0.048 A 
ATOM      4  C3  UNL d   1       0.933  -0.603   0.647  0.00  0.00     0.023 A 
ATOM      5  C4  UNL d   1       0.898  -0.416   2.030  0.00  0.00     0.048 A 
ATOM      6  C5  UNL d   1       1.786  -1.121   2.845  0.00  0.00     0.003 A 
ATOM      7  I   UNL d   1      -0.387   0.444  -0.570  0.00  0.00    -0.146 I 
ENDROOT
TORSDOF 0
ENDMDL
