MODEL 1
REMARK minimizedAffinity -3.43631959
REMARK minimizedRMSD -1
REMARK  1 active torsions:
REMARK  status: ('A' for Active; 'I' for Inactive)
REMARK    1  A    between atoms: C1_2  and  C2_3 
ROOT
ATOM      1  C2  UNL d   1       4.758  -3.590  -4.965  0.00  0.00    -0.077 A 
ATOM      2  C3  UNL d   1       3.619  -2.993  -5.524  0.00  0.00     0.002 A 
ATOM      3  C4  UNL d   1       3.671  -1.682  -6.000  0.00  0.00     0.002 A 
ATOM      4  C5  UNL d   1       4.859  -0.958  -5.926  0.00  0.00    -0.004 A 
ATOM      5  C6  UNL d   1       5.997  -1.543  -5.370  0.00  0.00     0.002 A 
ATOM      6  C7  UNL d   1       5.946  -2.853  -4.893  0.00  0.00     0.002 A 
ENDROOT
BRANCH   1   7
ATOM      7  C1  UNL d   1       4.717  -5.021  -4.496  0.00  0.00     0.055 C 
ATOM      8  C   UNL d   1       4.933  -5.989  -5.651  0.00  0.00     0.019 C 
ENDBRANCH   1   7
TORSDOF 1
ENDMDL
