MODEL 1
REMARK minimizedAffinity -2.43975782
REMARK minimizedRMSD -1
REMARK  1 active torsions:
REMARK  status: ('A' for Active; 'I' for Inactive)
REMARK    1  A    between atoms: C1_2  and  C2_3 
ROOT
ATOM      1  C2  UNL d   1       5.236  -3.633  -4.824  0.00  0.00    -0.077 A 
ATOM      2  C3  UNL d   1       4.360  -3.834  -5.900  0.00  0.00     0.002 A 
ATOM      3  C4  UNL d   1       3.620  -5.014  -5.998  0.00  0.00     0.002 A 
ATOM      4  C5  UNL d   1       3.745  -5.999  -5.021  0.00  0.00    -0.004 A 
ATOM      5  C6  UNL d   1       4.614  -5.810  -3.948  0.00  0.00     0.002 A 
ATOM      6  C7  UNL d   1       5.356  -4.632  -3.849  0.00  0.00     0.002 A 
ENDROOT
BRANCH   1   7
ATOM      7  C1  UNL d   1       5.998  -2.341  -4.690  0.00  0.00     0.055 C 
ATOM      8  C   UNL d   1       5.999  -1.844  -3.252  0.00  0.00     0.019 C 
ENDBRANCH   1   7
TORSDOF 1
ENDMDL
