MODEL 1
REMARK minimizedAffinity -3.47750068
REMARK minimizedRMSD -1
REMARK  1 active torsions:
REMARK  status: ('A' for Active; 'I' for Inactive)
REMARK    1  A    between atoms: C1_2  and  C2_3 
ROOT
ATOM      1  C2  UNL d   1       5.317  -3.618  -4.511  0.00  0.00    -0.077 A 
ATOM      2  C3  UNL d   1       3.977  -3.831  -4.863  0.00  0.00     0.002 A 
ATOM      3  C4  UNL d   1       3.334  -5.019  -4.508  0.00  0.00     0.002 A 
ATOM      4  C5  UNL d   1       4.021  -6.000  -3.797  0.00  0.00    -0.004 A 
ATOM      5  C6  UNL d   1       5.355  -5.798  -3.444  0.00  0.00     0.002 A 
ATOM      6  C7  UNL d   1       5.999  -4.612  -3.798  0.00  0.00     0.002 A 
ENDROOT
BRANCH   1   7
ATOM      7  C1  UNL d   1       5.997  -2.318  -4.849  0.00  0.00     0.055 C 
ATOM      8  C   UNL d   1       4.988  -1.253  -5.254  0.00  0.00     0.019 C 
ENDBRANCH   1   7
TORSDOF 1
ENDMDL
