MODEL 1
REMARK minimizedAffinity -3.54884076
REMARK minimizedRMSD -1
REMARK  1 active torsions:
REMARK  status: ('A' for Active; 'I' for Inactive)
REMARK    1  A    between atoms: C1_2  and  C2_3 
ROOT
ATOM      1  C2  UNL d   1       5.495  -3.429  -5.189  0.00  0.00    -0.077 A 
ATOM      2  C3  UNL d   1       4.485  -3.972  -5.995  0.00  0.00     0.002 A 
ATOM      3  C4  UNL d   1       3.991  -5.253  -5.741  0.00  0.00     0.002 A 
ATOM      4  C5  UNL d   1       4.497  -5.999  -4.680  0.00  0.00    -0.004 A 
ATOM      5  C6  UNL d   1       5.504  -5.469  -3.873  0.00  0.00     0.002 A 
ATOM      6  C7  UNL d   1       6.000  -4.190  -4.126  0.00  0.00     0.002 A 
ENDROOT
BRANCH   1   7
ATOM      7  C1  UNL d   1       5.995  -2.029  -5.430  0.00  0.00     0.055 C 
ATOM      8  C   UNL d   1       4.892  -1.133  -5.975  0.00  0.00     0.019 C 
ENDBRANCH   1   7
TORSDOF 1
ENDMDL
