MODEL 1
REMARK minimizedAffinity -3.64704132
REMARK minimizedRMSD -1
REMARK  1 active torsions:
REMARK  status: ('A' for Active; 'I' for Inactive)
REMARK    1  A    between atoms: C1_2  and  C2_3 
ROOT
ATOM      1  C2  UNL d   1       4.414  -3.767  -5.458  0.00  0.00    -0.077 A 
ATOM      2  C3  UNL d   1       3.388  -2.813  -5.393  0.00  0.00     0.002 A 
ATOM      3  C4  UNL d   1       3.662  -1.464  -5.628  0.00  0.00     0.002 A 
ATOM      4  C5  UNL d   1       4.959  -1.058  -5.934  0.00  0.00    -0.004 A 
ATOM      5  C6  UNL d   1       5.986  -1.998  -6.000  0.00  0.00     0.002 A 
ATOM      6  C7  UNL d   1       5.715  -3.347  -5.764  0.00  0.00     0.002 A 
ENDROOT
BRANCH   1   7
ATOM      7  C1  UNL d   1       4.111  -5.228  -5.253  0.00  0.00     0.055 C 
ATOM      8  C   UNL d   1       5.359  -6.000  -4.849  0.00  0.00     0.019 C 
ENDBRANCH   1   7
TORSDOF 1
ENDMDL
