MODEL 1
REMARK minimizedAffinity -3.87932396
REMARK minimizedRMSD -1
REMARK  1 active torsions:
REMARK  status: ('A' for Active; 'I' for Inactive)
REMARK    1  A    between atoms: C1_2  and  C2_3 
ROOT
ATOM      1  C2  UNL d   1       4.496  -3.972  -5.234  0.00  0.00    -0.077 A 
ATOM      2  C3  UNL d   1       5.753  -3.568  -5.707  0.00  0.00     0.002 A 
ATOM      3  C4  UNL d   1       6.000  -2.226  -5.999  0.00  0.00     0.002 A 
ATOM      4  C5  UNL d   1       4.997  -1.275  -5.818  0.00  0.00    -0.004 A 
ATOM      5  C6  UNL d   1       3.743  -1.667  -5.350  0.00  0.00     0.002 A 
ATOM      6  C7  UNL d   1       3.494  -3.009  -5.058  0.00  0.00     0.002 A 
ENDROOT
BRANCH   1   7
ATOM      7  C1  UNL d   1       4.242  -5.412  -4.871  0.00  0.00     0.055 C 
ATOM      8  C   UNL d   1       5.394  -5.990  -4.062  0.00  0.00     0.019 C 
ENDBRANCH   1   7
TORSDOF 1
ENDMDL
