MODEL 1
REMARK minimizedAffinity -3.65395236
REMARK minimizedRMSD -1
REMARK  1 active torsions:
REMARK  status: ('A' for Active; 'I' for Inactive)
REMARK    1  A    between atoms: C1_2  and  C2_3 
ROOT
ATOM      1  C2  UNL d   1       4.619  -4.522  -4.479  0.00  0.00    -0.077 A 
ATOM      2  C3  UNL d   1       3.764  -4.257  -5.558  0.00  0.00     0.002 A 
ATOM      3  C4  UNL d   1       3.548  -2.945  -5.983  0.00  0.00     0.002 A 
ATOM      4  C5  UNL d   1       4.186  -1.888  -5.337  0.00  0.00    -0.004 A 
ATOM      5  C6  UNL d   1       5.036  -2.140  -4.262  0.00  0.00     0.002 A 
ATOM      6  C7  UNL d   1       5.253  -3.451  -3.835  0.00  0.00     0.002 A 
ENDROOT
BRANCH   1   7
ATOM      7  C1  UNL d   1       4.892  -5.940  -4.051  0.00  0.00     0.055 C 
ATOM      8  C   UNL d   1       5.998  -6.000  -3.007  0.00  0.00     0.019 C 
ENDBRANCH   1   7
TORSDOF 1
ENDMDL
