MODEL 1
REMARK minimizedAffinity -3.51134801
REMARK minimizedRMSD -1
REMARK  1 active torsions:
REMARK  status: ('A' for Active; 'I' for Inactive)
REMARK    1  A    between atoms: C1_2  and  C2_3 
ROOT
ATOM      1  C2  UNL d   1       4.829  -3.769  -4.871  0.00  0.00    -0.077 A 
ATOM      2  C3  UNL d   1       3.743  -2.922  -4.609  0.00  0.00     0.002 A 
ATOM      3  C4  UNL d   1       3.785  -1.580  -4.996  0.00  0.00     0.002 A 
ATOM      4  C5  UNL d   1       4.908  -1.077  -5.649  0.00  0.00    -0.004 A 
ATOM      5  C6  UNL d   1       5.993  -1.912  -5.913  0.00  0.00     0.002 A 
ATOM      6  C7  UNL d   1       5.954  -3.252  -5.526  0.00  0.00     0.002 A 
ENDROOT
BRANCH   1   7
ATOM      7  C1  UNL d   1       4.765  -5.228  -4.500  0.00  0.00     0.055 C 
ATOM      8  C   UNL d   1       5.999  -5.654  -3.718  0.00  0.00     0.019 C 
ENDBRANCH   1   7
TORSDOF 1
ENDMDL
