MODEL 1
REMARK minimizedAffinity -2.80753422
REMARK minimizedRMSD -1
REMARK  1 active torsions:
REMARK  status: ('A' for Active; 'I' for Inactive)
REMARK    1  A    between atoms: C1_2  and  C2_3 
ROOT
ATOM      1  C2  UNL d   1      -0.926  -1.277  -1.077  0.00  0.00    -0.077 A 
ATOM      2  C3  UNL d   1      -0.713  -0.721  -2.346  0.00  0.00     0.002 A 
ATOM      3  C4  UNL d   1      -1.488  -1.128  -3.434  0.00  0.00     0.002 A 
ATOM      4  C5  UNL d   1      -2.483  -2.089  -3.263  0.00  0.00    -0.004 A 
ATOM      5  C6  UNL d   1      -2.700  -2.649  -2.005  0.00  0.00     0.002 A 
ATOM      6  C7  UNL d   1      -1.926  -2.245  -0.916  0.00  0.00     0.002 A 
ENDROOT
BRANCH   1   7
ATOM      7  C1  UNL d   1      -0.124  -0.804   0.108  0.00  0.00     0.055 C 
ATOM      8  C   UNL d   1      -0.715   0.465   0.705  0.00  0.00     0.019 C 
ENDBRANCH   1   7
TORSDOF 1
ENDMDL
