MODEL 1
REMARK minimizedAffinity -4.75819397
REMARK minimizedRMSD -1
REMARK  1 active torsions:
REMARK  status: ('A' for Active; 'I' for Inactive)
REMARK    1  A    between atoms: C1_2  and  C2_3 
ROOT
ATOM      1  C2  UNL d   1       1.499   0.358   0.463  0.00  0.00    -0.077 A 
ATOM      2  C3  UNL d   1       0.443  -0.188  -0.281  0.00  0.00     0.002 A 
ATOM      3  C4  UNL d   1      -0.880   0.129   0.032  0.00  0.00     0.002 A 
ATOM      4  C5  UNL d   1      -1.159   0.997   1.085  0.00  0.00    -0.004 A 
ATOM      5  C6  UNL d   1      -0.117   1.544   1.832  0.00  0.00     0.002 A 
ATOM      6  C7  UNL d   1       1.206   1.227   1.522  0.00  0.00     0.002 A 
ENDROOT
BRANCH   1   7
ATOM      7  C1  UNL d   1       2.928   0.056   0.096  0.00  0.00     0.055 C 
ATOM      8  C   UNL d   1       3.899   0.897   0.912  0.00  0.00     0.019 C 
ENDBRANCH   1   7
TORSDOF 1
ENDMDL
