MODEL 1
REMARK minimizedAffinity -3.80428815
REMARK minimizedRMSD -1
REMARK  1 active torsions:
REMARK  status: ('A' for Active; 'I' for Inactive)
REMARK    1  A    between atoms: C1_2  and  C2_3 
ROOT
ATOM      1  C2  UNL d   1      -1.045  -0.668  -0.506  0.00  0.00    -0.077 A 
ATOM      2  C3  UNL d   1      -1.056   0.570  -1.164  0.00  0.00     0.002 A 
ATOM      3  C4  UNL d   1      -0.617   1.722  -0.509  0.00  0.00     0.002 A 
ATOM      4  C5  UNL d   1      -0.160   1.647   0.805  0.00  0.00    -0.004 A 
ATOM      5  C6  UNL d   1      -0.148   0.421   1.469  0.00  0.00     0.002 A 
ATOM      6  C7  UNL d   1      -0.587  -0.731   0.816  0.00  0.00     0.002 A 
ENDROOT
BRANCH   1   7
ATOM      7  C1  UNL d   1      -1.471  -1.920  -1.227  0.00  0.00     0.055 C 
ATOM      8  C   UNL d   1      -2.048  -1.600  -2.599  0.00  0.00     0.019 C 
ENDBRANCH   1   7
TORSDOF 1
ENDMDL
