MODEL 1
REMARK minimizedAffinity 0.149545863
REMARK minimizedRMSD -1
REMARK  1 active torsions:
REMARK  status: ('A' for Active; 'I' for Inactive)
REMARK    1  A    between atoms: C1_2  and  C2_3 
ROOT
ATOM      1  C2  UNL d   1      -0.371   0.075  -1.673  0.00  0.00    -0.077 A 
ATOM      2  C3  UNL d   1       1.014  -0.137  -1.704  0.00  0.00     0.002 A 
ATOM      3  C4  UNL d   1       1.765  -0.071  -0.528  0.00  0.00     0.002 A 
ATOM      4  C5  UNL d   1       1.139   0.202   0.686  0.00  0.00    -0.004 A 
ATOM      5  C6  UNL d   1      -0.238   0.417   0.727  0.00  0.00     0.002 A 
ATOM      6  C7  UNL d   1      -0.990   0.353  -0.447  0.00  0.00     0.002 A 
ENDROOT
BRANCH   1   7
ATOM      7  C1  UNL d   1      -1.190  -0.044  -2.931  0.00  0.00     0.055 C 
ATOM      8  C   UNL d   1      -2.333  -1.034  -2.757  0.00  0.00     0.019 C 
ENDBRANCH   1   7
TORSDOF 1
ENDMDL
