MODEL 1
REMARK minimizedAffinity -1.11562777
REMARK minimizedRMSD -1
REMARK  1 active torsions:
REMARK  status: ('A' for Active; 'I' for Inactive)
REMARK    1  A    between atoms: C1_2  and  C2_3 
ROOT
ATOM      1  C2  UNL d   1      -1.394  -1.330  -1.321  0.00  0.00    -0.077 A 
ATOM      2  C3  UNL d   1      -0.224  -1.780  -0.693  0.00  0.00     0.002 A 
ATOM      3  C4  UNL d   1       0.413  -0.987   0.263  0.00  0.00     0.002 A 
ATOM      4  C5  UNL d   1      -0.114   0.257   0.603  0.00  0.00    -0.004 A 
ATOM      5  C6  UNL d   1      -1.276   0.714  -0.017  0.00  0.00     0.002 A 
ATOM      6  C7  UNL d   1      -1.914  -0.076  -0.974  0.00  0.00     0.002 A 
ENDROOT
BRANCH   1   7
ATOM      7  C1  UNL d   1      -2.110  -2.204  -2.317  0.00  0.00     0.055 C 
ATOM      8  C   UNL d   1      -2.169  -1.547  -3.689  0.00  0.00     0.019 C 
ENDBRANCH   1   7
TORSDOF 1
ENDMDL
