MODEL 1
REMARK minimizedAffinity -2.41278696
REMARK minimizedRMSD -1
REMARK  1 active torsions:
REMARK  status: ('A' for Active; 'I' for Inactive)
REMARK    1  A    between atoms: C1_2  and  C2_3 
ROOT
ATOM      1  C2  UNL d   1       0.008   0.587   0.935  0.00  0.00    -0.077 A 
ATOM      2  C3  UNL d   1      -1.299   0.088   0.848  0.00  0.00     0.002 A 
ATOM      3  C4  UNL d   1      -1.609  -0.924  -0.063  0.00  0.00     0.002 A 
ATOM      4  C5  UNL d   1      -0.617  -1.448  -0.889  0.00  0.00    -0.004 A 
ATOM      5  C6  UNL d   1       0.685  -0.957  -0.811  0.00  0.00     0.002 A 
ATOM      6  C7  UNL d   1       0.997   0.055   0.098  0.00  0.00     0.002 A 
ENDROOT
BRANCH   1   7
ATOM      7  C1  UNL d   1       0.355   1.644   1.951  0.00  0.00     0.055 C 
ATOM      8  C   UNL d   1       1.767   1.454   2.487  0.00  0.00     0.019 C 
ENDBRANCH   1   7
TORSDOF 1
ENDMDL
