MODEL 1
REMARK minimizedAffinity -4.46899748
REMARK minimizedRMSD -1
REMARK  1 active torsions:
REMARK  status: ('A' for Active; 'I' for Inactive)
REMARK    1  A    between atoms: C1_2  and  C2_3 
ROOT
ATOM      1  C2  UNL d   1      -1.077  -1.161  -0.889  0.00  0.00    -0.077 A 
ATOM      2  C3  UNL d   1      -0.692  -1.331  -2.226  0.00  0.00     0.002 A 
ATOM      3  C4  UNL d   1      -1.610  -1.793  -3.172  0.00  0.00     0.002 A 
ATOM      4  C5  UNL d   1      -2.919  -2.083  -2.791  0.00  0.00    -0.004 A 
ATOM      5  C6  UNL d   1      -3.310  -1.919  -1.463  0.00  0.00     0.002 A 
ATOM      6  C7  UNL d   1      -2.394  -1.459  -0.517  0.00  0.00     0.002 A 
ENDROOT
BRANCH   1   7
ATOM      7  C1  UNL d   1      -0.102  -0.617   0.123  0.00  0.00     0.055 C 
ATOM      8  C   UNL d   1      -0.821   0.118   1.245  0.00  0.00     0.019 C 
ENDBRANCH   1   7
TORSDOF 1
ENDMDL
