MODEL 1
REMARK minimizedAffinity -3.80162311
REMARK minimizedRMSD -1
REMARK  1 active torsions:
REMARK  status: ('A' for Active; 'I' for Inactive)
REMARK    1  A    between atoms: C1_2  and  C2_3 
ROOT
ATOM      1  C2  UNL d   1       0.765  -0.267   0.171  0.00  0.00    -0.077 A 
ATOM      2  C3  UNL d   1       2.096   0.133   0.351  0.00  0.00     0.002 A 
ATOM      3  C4  UNL d   1       2.413   1.148   1.256  0.00  0.00     0.002 A 
ATOM      4  C5  UNL d   1       1.405   1.768   1.991  0.00  0.00    -0.004 A 
ATOM      5  C6  UNL d   1       0.078   1.379   1.819  0.00  0.00     0.002 A 
ATOM      6  C7  UNL d   1      -0.241   0.366   0.913  0.00  0.00     0.002 A 
ENDROOT
BRANCH   1   7
ATOM      7  C1  UNL d   1       0.426  -1.394  -0.768  0.00  0.00     0.055 C 
ATOM      8  C   UNL d   1      -1.079  -1.596  -0.871  0.00  0.00     0.019 C 
ENDBRANCH   1   7
TORSDOF 1
ENDMDL
