MODEL 1
REMARK minimizedAffinity -1.95951951
REMARK minimizedRMSD -1
REMARK  1 active torsions:
REMARK  status: ('A' for Active; 'I' for Inactive)
REMARK    1  A    between atoms: C1_2  and  C2_3 
ROOT
ATOM      1  C2  UNL d   1      -0.884  -1.089  -0.406  0.00  0.00    -0.077 A 
ATOM      2  C3  UNL d   1       0.315  -1.456  -1.034  0.00  0.00     0.002 A 
ATOM      3  C4  UNL d   1       0.301  -2.007  -2.317  0.00  0.00     0.002 A 
ATOM      4  C5  UNL d   1      -0.908  -2.193  -2.984  0.00  0.00    -0.004 A 
ATOM      5  C6  UNL d   1      -2.106  -1.833  -2.367  0.00  0.00     0.002 A 
ATOM      6  C7  UNL d   1      -2.094  -1.283  -1.085  0.00  0.00     0.002 A 
ENDROOT
BRANCH   1   7
ATOM      7  C1  UNL d   1      -0.867  -0.448   0.957  0.00  0.00     0.055 C 
ATOM      8  C   UNL d   1       0.021   0.787   0.977  0.00  0.00     0.019 C 
ENDBRANCH   1   7
TORSDOF 1
ENDMDL
