MODEL 1
REMARK minimizedAffinity -1.65024614
REMARK minimizedRMSD -1
REMARK  1 active torsions:
REMARK  status: ('A' for Active; 'I' for Inactive)
REMARK    1  A    between atoms: C1_2  and  C2_3 
ROOT
ATOM      1  C2  UNL d   1      -0.940  -1.443  -0.739  0.00  0.00    -0.077 A 
ATOM      2  C3  UNL d   1      -0.015  -1.502  -1.790  0.00  0.00     0.002 A 
ATOM      3  C4  UNL d   1      -0.439  -1.788  -3.090  0.00  0.00     0.002 A 
ATOM      4  C5  UNL d   1      -1.789  -2.012  -3.350  0.00  0.00    -0.004 A 
ATOM      5  C6  UNL d   1      -2.717  -1.958  -2.311  0.00  0.00     0.002 A 
ATOM      6  C7  UNL d   1      -2.295  -1.674  -1.011  0.00  0.00     0.002 A 
ENDROOT
BRANCH   1   7
ATOM      7  C1  UNL d   1      -0.491  -1.087   0.654  0.00  0.00     0.055 C 
ATOM      8  C   UNL d   1      -0.486   0.420   0.866  0.00  0.00     0.019 C 
ENDBRANCH   1   7
TORSDOF 1
ENDMDL
