MODEL 1
REMARK minimizedAffinity 11.8873301
REMARK minimizedRMSD -1
REMARK  0 active torsions:
REMARK  status: ('A' for Active; 'I' for Inactive)
ROOT
ATOM      1  C   UNL d   1       1.869   1.806   2.007  0.00  0.00    -0.002 A 
ATOM      2  C1  UNL d   1       2.978   2.308   1.341  0.00  0.00     0.010 A 
ATOM      3  C2  UNL d   1       2.839   2.926   0.096  0.00  0.00     0.041 A 
ATOM      4  C3  UNL d   1       1.554   3.033  -0.472  0.00  0.00    -0.075 A 
ATOM      5  S   UNL d   1       1.143   3.750  -1.985  0.00  0.00     0.015 SA
ATOM      6  C4  UNL d   1      -0.514   3.407  -1.782  0.00  0.00     0.022 A 
ATOM      7  C5  UNL d   1      -0.765   2.761  -0.595  0.00  0.00     0.026 A 
ATOM      8  C6  UNL d   1       0.422   2.535   0.180  0.00  0.00    -0.082 A 
ATOM      9  C7  UNL d   1       0.596   1.914   1.440  0.00  0.00     0.045 A 
ENDROOT
TORSDOF 0
ENDMDL
