MODEL 1
REMARK minimizedAffinity -1.19339347
REMARK minimizedRMSD -1
REMARK  0 active torsions:
REMARK  status: ('A' for Active; 'I' for Inactive)
ROOT
ATOM      1  C   UNL d   1       1.824   4.805  -0.587  0.00  0.00    -0.002 A 
ATOM      2  C1  UNL d   1       2.322   4.108   0.505  0.00  0.00     0.010 A 
ATOM      3  C2  UNL d   1       1.768   2.882   0.878  0.00  0.00     0.041 A 
ATOM      4  C3  UNL d   1       0.695   2.362   0.127  0.00  0.00    -0.075 A 
ATOM      5  S   UNL d   1      -0.140   0.879   0.398  0.00  0.00     0.015 SA
ATOM      6  C4  UNL d   1      -1.178   1.135  -0.929  0.00  0.00     0.022 A 
ATOM      7  C5  UNL d   1      -0.908   2.318  -1.574  0.00  0.00     0.026 A 
ATOM      8  C6  UNL d   1       0.177   3.045  -0.976  0.00  0.00    -0.082 A 
ATOM      9  C7  UNL d   1       0.760   4.286  -1.329  0.00  0.00     0.045 A 
ENDROOT
TORSDOF 0
ENDMDL
