MODEL 1
REMARK minimizedAffinity 1.91150296
REMARK minimizedRMSD -1
REMARK  0 active torsions:
REMARK  status: ('A' for Active; 'I' for Inactive)
ROOT
ATOM      1  C   UNL d   1      -3.809   0.788  -2.332  0.00  0.00    -0.002 A 
ATOM      2  C1  UNL d   1      -4.213   1.956  -2.964  0.00  0.00     0.010 A 
ATOM      3  C2  UNL d   1      -3.454   3.122  -2.855  0.00  0.00     0.041 A 
ATOM      4  C3  UNL d   1      -2.268   3.095  -2.095  0.00  0.00    -0.075 A 
ATOM      5  S   UNL d   1      -1.178   4.403  -1.822  0.00  0.00     0.015 SA
ATOM      6  C4  UNL d   1      -0.149   3.443  -0.861  0.00  0.00     0.022 A 
ATOM      7  C5  UNL d   1      -0.611   2.154  -0.740  0.00  0.00     0.026 A 
ATOM      8  C6  UNL d   1      -1.840   1.932  -1.449  0.00  0.00    -0.082 A 
ATOM      9  C7  UNL d   1      -2.632   0.766  -1.578  0.00  0.00     0.045 A 
ENDROOT
TORSDOF 0
ENDMDL
