MODEL 1
REMARK minimizedAffinity 13.9172411
REMARK minimizedRMSD -1
REMARK  0 active torsions:
REMARK  status: ('A' for Active; 'I' for Inactive)
ROOT
ATOM      1  C   UNL d   1      -0.502   2.939  -1.675  0.00  0.00    -0.002 A 
ATOM      2  C1  UNL d   1       0.517   3.870  -1.526  0.00  0.00     0.010 A 
ATOM      3  C2  UNL d   1       1.213   3.974  -0.320  0.00  0.00     0.041 A 
ATOM      4  C3  UNL d   1       0.866   3.118   0.743  0.00  0.00    -0.075 A 
ATOM      5  S   UNL d   1       1.581   3.065   2.311  0.00  0.00     0.015 SA
ATOM      6  C4  UNL d   1       0.552   1.805   2.820  0.00  0.00     0.022 A 
ATOM      7  C5  UNL d   1      -0.323   1.422   1.831  0.00  0.00     0.026 A 
ATOM      8  C6  UNL d   1      -0.156   2.172   0.617  0.00  0.00    -0.082 A 
ATOM      9  C7  UNL d   1      -0.843   2.091  -0.618  0.00  0.00     0.045 A 
ENDROOT
TORSDOF 0
ENDMDL
