MODEL 1
REMARK minimizedAffinity 5.68883944
REMARK minimizedRMSD -1
REMARK  0 active torsions:
REMARK  status: ('A' for Active; 'I' for Inactive)
ROOT
ATOM      1  C   UNL d   1       0.021   3.794  -1.223  0.00  0.00    -0.002 A 
ATOM      2  C1  UNL d   1       1.227   4.397  -0.895  0.00  0.00     0.010 A 
ATOM      3  C2  UNL d   1       1.870   4.092   0.306  0.00  0.00     0.041 A 
ATOM      4  C3  UNL d   1       1.275   3.160   1.180  0.00  0.00    -0.075 A 
ATOM      5  S   UNL d   1       1.881   2.632   2.705  0.00  0.00     0.015 SA
ATOM      6  C4  UNL d   1       0.554   1.593   2.957  0.00  0.00     0.022 A 
ATOM      7  C5  UNL d   1      -0.340   1.636   1.913  0.00  0.00     0.026 A 
ATOM      8  C6  UNL d   1       0.061   2.540   0.871  0.00  0.00    -0.082 A 
ATOM      9  C7  UNL d   1      -0.566   2.870  -0.354  0.00  0.00     0.045 A 
ENDROOT
TORSDOF 0
ENDMDL
