MODEL 1
REMARK minimizedAffinity -2.7118113
REMARK minimizedRMSD -1
REMARK  0 active torsions:
REMARK  status: ('A' for Active; 'I' for Inactive)
ROOT
ATOM      1  C   UNL d   1       2.069  -3.296  -1.527  0.00  0.00    -0.002 A 
ATOM      2  C1  UNL d   1       2.858  -2.225  -1.922  0.00  0.00     0.010 A 
ATOM      3  C2  UNL d   1       2.499  -0.917  -1.588  0.00  0.00     0.041 A 
ATOM      4  C3  UNL d   1       1.323  -0.703  -0.842  0.00  0.00    -0.075 A 
ATOM      5  S   UNL d   1       0.686   0.812  -0.318  0.00  0.00     0.015 SA
ATOM      6  C4  UNL d   1      -0.647   0.072   0.443  0.00  0.00     0.022 A 
ATOM      7  C5  UNL d   1      -0.624  -1.296   0.310  0.00  0.00     0.026 A 
ATOM      8  C6  UNL d   1       0.513  -1.765  -0.432  0.00  0.00    -0.082 A 
ATOM      9  C7  UNL d   1       0.903  -3.079  -0.787  0.00  0.00     0.045 A 
ENDROOT
TORSDOF 0
ENDMDL
