MODEL 1
REMARK minimizedAffinity -5.6384387
REMARK minimizedRMSD -1
REMARK  0 active torsions:
REMARK  status: ('A' for Active; 'I' for Inactive)
ROOT
ATOM      1  C   UNL d   1       2.736  -0.275  -2.251  0.00  0.00    -0.002 A 
ATOM      2  C1  UNL d   1       2.645  -1.659  -2.196  0.00  0.00     0.010 A 
ATOM      3  C2  UNL d   1       1.703  -2.277  -1.372  0.00  0.00     0.041 A 
ATOM      4  C3  UNL d   1       0.843  -1.472  -0.598  0.00  0.00    -0.075 A 
ATOM      5  S   UNL d   1      -0.388  -2.008   0.483  0.00  0.00     0.015 SA
ATOM      6  C4  UNL d   1      -0.824  -0.413   0.897  0.00  0.00     0.022 A 
ATOM      7  C5  UNL d   1      -0.058   0.518   0.236  0.00  0.00     0.026 A 
ATOM      8  C6  UNL d   1       0.915  -0.077  -0.637  0.00  0.00    -0.082 A 
ATOM      9  C7  UNL d   1       1.881   0.519  -1.482  0.00  0.00     0.045 A 
ENDROOT
TORSDOF 0
ENDMDL
