MODEL 1
REMARK minimizedAffinity 4.73549032
REMARK minimizedRMSD -1
REMARK  0 active torsions:
REMARK  status: ('A' for Active; 'I' for Inactive)
ROOT
ATOM      1  C   UNL d   1       1.433   1.707   0.019  0.00  0.00    -0.002 A 
ATOM      2  C1  UNL d   1       0.096   2.079   0.055  0.00  0.00     0.010 A 
ATOM      3  C2  UNL d   1      -0.912   1.117  -0.028  0.00  0.00     0.041 A 
ATOM      4  C3  UNL d   1      -0.551  -0.240  -0.147  0.00  0.00    -0.075 A 
ATOM      5  S   UNL d   1      -1.614  -1.592  -0.263  0.00  0.00     0.015 SA
ATOM      6  C4  UNL d   1      -0.320  -2.696  -0.361  0.00  0.00     0.022 A 
ATOM      7  C5  UNL d   1       0.901  -2.066  -0.309  0.00  0.00     0.026 A 
ATOM      8  C6  UNL d   1       0.788  -0.640  -0.184  0.00  0.00    -0.082 A 
ATOM      9  C7  UNL d   1       1.787   0.360  -0.098  0.00  0.00     0.045 A 
ENDROOT
TORSDOF 0
ENDMDL
