MODEL 1
REMARK minimizedAffinity 8.89238548
REMARK minimizedRMSD -1
REMARK  0 active torsions:
REMARK  status: ('A' for Active; 'I' for Inactive)
ROOT
ATOM      1  C   UNL d   1       1.837  -0.170  -1.528  0.00  0.00    -0.002 A 
ATOM      2  C1  UNL d   1       1.855   0.299  -2.834  0.00  0.00     0.010 A 
ATOM      3  C2  UNL d   1       1.685   1.658  -3.103  0.00  0.00     0.041 A 
ATOM      4  C3  UNL d   1       1.496   2.547  -2.027  0.00  0.00    -0.075 A 
ATOM      5  S   UNL d   1       1.267   4.254  -2.117  0.00  0.00     0.015 SA
ATOM      6  C4  UNL d   1       1.141   4.401  -0.423  0.00  0.00     0.022 A 
ATOM      7  C5  UNL d   1       1.268   3.188   0.211  0.00  0.00     0.026 A 
ATOM      8  C6  UNL d   1       1.475   2.100  -0.703  0.00  0.00    -0.082 A 
ATOM      9  C7  UNL d   1       1.650   0.715  -0.463  0.00  0.00     0.045 A 
ENDROOT
TORSDOF 0
ENDMDL
