MODEL 1
REMARK minimizedAffinity 5.04777527
REMARK minimizedRMSD -1
REMARK  0 active torsions:
REMARK  status: ('A' for Active; 'I' for Inactive)
ROOT
ATOM      1  C   UNL d   1       2.170   0.979  -1.489  0.00  0.00    -0.002 A 
ATOM      2  C1  UNL d   1       1.817   0.466  -2.729  0.00  0.00     0.010 A 
ATOM      3  C2  UNL d   1       1.030  -0.684  -2.823  0.00  0.00     0.041 A 
ATOM      4  C3  UNL d   1       0.598  -1.313  -1.639  0.00  0.00    -0.075 A 
ATOM      5  S   UNL d   1      -0.375  -2.731  -1.511  0.00  0.00     0.015 SA
ATOM      6  C4  UNL d   1      -0.346  -2.687   0.192  0.00  0.00     0.022 A 
ATOM      7  C5  UNL d   1       0.384  -1.624   0.668  0.00  0.00     0.026 A 
ATOM      8  C6  UNL d   1       0.939  -0.814  -0.379  0.00  0.00    -0.082 A 
ATOM      9  C7  UNL d   1       1.739   0.352  -0.317  0.00  0.00     0.045 A 
ENDROOT
TORSDOF 0
ENDMDL
