MODEL 1
REMARK minimizedAffinity 6.65448856
REMARK minimizedRMSD -1
REMARK  0 active torsions:
REMARK  status: ('A' for Active; 'I' for Inactive)
ROOT
ATOM      1  C   UNL d   1       1.733   4.319  -1.502  0.00  0.00    -0.002 A 
ATOM      2  C1  UNL d   1       1.018   4.051  -0.344  0.00  0.00     0.010 A 
ATOM      3  C2  UNL d   1       0.795   2.735   0.065  0.00  0.00     0.041 A 
ATOM      4  C3  UNL d   1       1.311   1.682  -0.717  0.00  0.00    -0.075 A 
ATOM      5  S   UNL d   1       1.163  -0.008  -0.412  0.00  0.00     0.015 SA
ATOM      6  C4  UNL d   1       2.047  -0.414  -1.811  0.00  0.00     0.022 A 
ATOM      7  C5  UNL d   1       2.453   0.700  -2.506  0.00  0.00     0.026 A 
ATOM      8  C6  UNL d   1       2.035   1.927  -1.887  0.00  0.00    -0.082 A 
ATOM      9  C7  UNL d   1       2.243   3.273  -2.275  0.00  0.00     0.045 A 
ENDROOT
TORSDOF 0
ENDMDL
