MODEL 1
REMARK minimizedAffinity 5.16769218
REMARK minimizedRMSD -1
REMARK  0 active torsions:
REMARK  status: ('A' for Active; 'I' for Inactive)
ROOT
ATOM      1  C   UNL d   1      -0.439  -0.932   0.870  0.00  0.00    -0.002 A 
ATOM      2  C1  UNL d   1       0.017  -1.367  -0.366  0.00  0.00     0.010 A 
ATOM      3  C2  UNL d   1       0.967  -0.628  -1.073  0.00  0.00     0.041 A 
ATOM      4  C3  UNL d   1       1.457   0.567  -0.510  0.00  0.00    -0.075 A 
ATOM      5  S   UNL d   1       2.625   1.636  -1.194  0.00  0.00     0.015 SA
ATOM      6  C4  UNL d   1       2.545   2.695   0.139  0.00  0.00     0.022 A 
ATOM      7  C5  UNL d   1       1.655   2.259   1.092  0.00  0.00     0.026 A 
ATOM      8  C6  UNL d   1       1.013   1.026   0.733  0.00  0.00    -0.082 A 
ATOM      9  C7  UNL d   1       0.049   0.254   1.425  0.00  0.00     0.045 A 
ENDROOT
TORSDOF 0
ENDMDL
