MODEL 1
REMARK minimizedAffinity 9.06410885
REMARK minimizedRMSD -1
REMARK  0 active torsions:
REMARK  status: ('A' for Active; 'I' for Inactive)
ROOT
ATOM      1  C   UNL d   1       5.145  -3.407  -5.364  0.00  0.00    -0.002 A 
ATOM      2  C1  UNL d   1       4.678  -2.265  -5.999  0.00  0.00     0.010 A 
ATOM      3  C2  UNL d   1       4.108  -1.225  -5.262  0.00  0.00     0.041 A 
ATOM      4  C3  UNL d   1       4.016  -1.353  -3.863  0.00  0.00    -0.075 A 
ATOM      5  S   UNL d   1       3.357  -0.207  -2.756  0.00  0.00     0.015 SA
ATOM      6  C4  UNL d   1       3.680  -1.206  -1.413  0.00  0.00     0.022 A 
ATOM      7  C5  UNL d   1       4.276  -2.389  -1.782  0.00  0.00     0.026 A 
ATOM      8  C6  UNL d   1       4.480  -2.493  -3.200  0.00  0.00    -0.082 A 
ATOM      9  C7  UNL d   1       5.052  -3.530  -3.975  0.00  0.00     0.045 A 
ENDROOT
TORSDOF 0
ENDMDL
