MODEL 1
REMARK minimizedAffinity 2.20943093
REMARK minimizedRMSD -1
REMARK  0 active torsions:
REMARK  status: ('A' for Active; 'I' for Inactive)
ROOT
ATOM      1  C   UNL d   1      -0.792   2.570  -5.864  0.00  0.00    -0.002 A 
ATOM      2  C1  UNL d   1      -1.517   3.753  -5.825  0.00  0.00     0.010 A 
ATOM      3  C2  UNL d   1      -2.913   3.731  -5.844  0.00  0.00     0.041 A 
ATOM      4  C3  UNL d   1      -3.575   2.489  -5.902  0.00  0.00    -0.075 A 
ATOM      5  S   UNL d   1      -5.277   2.219  -5.934  0.00  0.00     0.015 SA
ATOM      6  C4  UNL d   1      -5.083   0.527  -6.000  0.00  0.00     0.022 A 
ATOM      7  C5  UNL d   1      -3.758   0.160  -5.998  0.00  0.00     0.026 A 
ATOM      8  C6  UNL d   1      -2.867   1.284  -5.941  0.00  0.00    -0.082 A 
ATOM      9  C7  UNL d   1      -1.452   1.340  -5.921  0.00  0.00     0.045 A 
ENDROOT
TORSDOF 0
ENDMDL
