MODEL 1
REMARK minimizedAffinity 3.76748228
REMARK minimizedRMSD -1
REMARK  0 active torsions:
REMARK  status: ('A' for Active; 'I' for Inactive)
ROOT
ATOM      1  C   UNL d   1      -5.183  -2.446  -4.876  0.00  0.00    -0.002 A 
ATOM      2  C1  UNL d   1      -5.778  -3.447  -5.631  0.00  0.00     0.010 A 
ATOM      3  C2  UNL d   1      -5.055  -4.583  -6.000  0.00  0.00     0.041 A 
ATOM      4  C3  UNL d   1      -3.711  -4.698  -5.592  0.00  0.00    -0.075 A 
ATOM      5  S   UNL d   1      -2.632  -6.000  -5.926  0.00  0.00     0.015 SA
ATOM      6  C4  UNL d   1      -1.355  -5.258  -5.074  0.00  0.00     0.022 A 
ATOM      7  C5  UNL d   1      -1.726  -4.046  -4.542  0.00  0.00     0.026 A 
ATOM      8  C6  UNL d   1      -3.091  -3.704  -4.831  0.00  0.00    -0.082 A 
ATOM      9  C7  UNL d   1      -3.850  -2.564  -4.473  0.00  0.00     0.045 A 
ENDROOT
TORSDOF 0
ENDMDL
