MODEL 1
REMARK minimizedAffinity 0.73424691
REMARK minimizedRMSD -1
REMARK  0 active torsions:
REMARK  status: ('A' for Active; 'I' for Inactive)
ROOT
ATOM      1  C   UNL d   1      -4.435   0.357   1.482  0.00  0.00    -0.002 A 
ATOM      2  C1  UNL d   1      -3.700   1.313   2.168  0.00  0.00     0.010 A 
ATOM      3  C2  UNL d   1      -2.308   1.349   2.063  0.00  0.00     0.041 A 
ATOM      4  C3  UNL d   1      -1.661   0.401   1.246  0.00  0.00    -0.075 A 
ATOM      5  S   UNL d   1       0.034   0.254   0.965  0.00  0.00     0.015 SA
ATOM      6  C4  UNL d   1      -0.178  -1.080  -0.074  0.00  0.00     0.022 A 
ATOM      7  C5  UNL d   1      -1.503  -1.419  -0.213  0.00  0.00     0.026 A 
ATOM      8  C6  UNL d   1      -2.380  -0.571   0.545  0.00  0.00    -0.082 A 
ATOM      9  C7  UNL d   1      -3.790  -0.583   0.673  0.00  0.00     0.045 A 
ENDROOT
TORSDOF 0
ENDMDL
