MODEL 1
REMARK minimizedAffinity -2.7719121
REMARK minimizedRMSD -1
REMARK  0 active torsions:
REMARK  status: ('A' for Active; 'I' for Inactive)
ROOT
ATOM      1  C   UNL d   1      -1.821  -2.008   0.373  0.00  0.00    -0.002 A 
ATOM      2  C1  UNL d   1      -0.609  -1.570   0.888  0.00  0.00     0.010 A 
ATOM      3  C2  UNL d   1      -0.541  -0.400   1.648  0.00  0.00     0.041 A 
ATOM      4  C3  UNL d   1      -1.724   0.327   1.885  0.00  0.00    -0.075 A 
ATOM      5  S   UNL d   1      -1.882   1.787   2.789  0.00  0.00     0.015 SA
ATOM      6  C4  UNL d   1      -3.563   1.863   2.513  0.00  0.00     0.022 A 
ATOM      7  C5  UNL d   1      -4.009   0.809   1.752  0.00  0.00     0.026 A 
ATOM      8  C6  UNL d   1      -2.956  -0.094   1.378  0.00  0.00    -0.082 A 
ATOM      9  C7  UNL d   1      -2.992  -1.283   0.611  0.00  0.00     0.045 A 
ENDROOT
TORSDOF 0
ENDMDL
