MODEL 1
REMARK minimizedAffinity -1.55586529
REMARK minimizedRMSD -1
REMARK  1 active torsions:
REMARK  status: ('A' for Active; 'I' for Inactive)
REMARK    1  A    between atoms: N_2  and  C1_3 
ROOT
ATOM      1  C1  UNL d   1      -0.138   0.542   0.083  0.00  0.00     0.143 A 
ATOM      2  C2  UNL d   1       1.125   0.625  -0.513  0.00  0.00    -0.057 A 
ATOM      3  C3  UNL d   1       2.118  -0.325  -0.244  0.00  0.00     0.033 A 
ATOM      4  C4  UNL d   1       1.874  -1.361   0.651  0.00  0.00    -0.042 A 
ATOM      5  C5  UNL d   1       0.634  -1.449   1.274  0.00  0.00     0.033 A 
ATOM      6  C6  UNL d   1      -0.356  -0.501   0.997  0.00  0.00    -0.057 A 
ENDROOT
BRANCH   1   7
ATOM      7  N   UNL d   1      -1.134   1.510  -0.067  0.00  0.00    -0.732 N 
ATOM      8  C   UNL d   1      -1.745   1.745  -1.358  0.00  0.00     0.284 C 
ATOM      9  H3  UNL d   1      -1.789   1.517   0.711  0.00  0.00     0.395 HD
ENDBRANCH   1   7
TORSDOF 1
ENDMDL
