MODEL 1
REMARK minimizedAffinity -2.94346237
REMARK minimizedRMSD -1
REMARK  1 active torsions:
REMARK  status: ('A' for Active; 'I' for Inactive)
REMARK    1  A    between atoms: N_2  and  C1_3 
ROOT
ATOM      1  C1  UNL d   1      -1.311   1.611  -1.195  0.00  0.00     0.143 A 
ATOM      2  C2  UNL d   1      -1.062   2.800  -1.888  0.00  0.00    -0.057 A 
ATOM      3  C3  UNL d   1      -1.580   3.015  -3.171  0.00  0.00     0.033 A 
ATOM      4  C4  UNL d   1      -2.335   2.028  -3.797  0.00  0.00    -0.042 A 
ATOM      5  C5  UNL d   1      -2.575   0.829  -3.136  0.00  0.00     0.033 A 
ATOM      6  C6  UNL d   1      -2.060   0.623  -1.852  0.00  0.00    -0.057 A 
ENDROOT
BRANCH   1   7
ATOM      7  N   UNL d   1      -0.742   1.299   0.043  0.00  0.00    -0.732 N 
ATOM      8  C   UNL d   1       0.085   0.121   0.197  0.00  0.00     0.284 C 
ATOM      9  H3  UNL d   1      -0.390   2.121   0.527  0.00  0.00     0.395 HD
ENDBRANCH   1   7
TORSDOF 1
ENDMDL
