MODEL 1
REMARK minimizedAffinity -2.49557018
REMARK minimizedRMSD -1
REMARK  1 active torsions:
REMARK  status: ('A' for Active; 'I' for Inactive)
REMARK    1  A    between atoms: N_2  and  C1_3 
ROOT
ATOM      1  C1  UNL d   1      -0.254   1.329  -0.277  0.00  0.00     0.143 A 
ATOM      2  C2  UNL d   1      -0.746   0.353   0.596  0.00  0.00    -0.057 A 
ATOM      3  C3  UNL d   1       0.060  -0.709   1.026  0.00  0.00     0.033 A 
ATOM      4  C4  UNL d   1       1.367  -0.829   0.565  0.00  0.00    -0.042 A 
ATOM      5  C5  UNL d   1       1.868   0.116  -0.323  0.00  0.00     0.033 A 
ATOM      6  C6  UNL d   1       1.061   1.178  -0.743  0.00  0.00    -0.057 A 
ENDROOT
BRANCH   1   7
ATOM      7  N   UNL d   1      -1.035   2.354  -0.817  0.00  0.00    -0.732 N 
ATOM      8  C   UNL d   1      -1.857   2.117  -1.984  0.00  0.00     0.284 C 
ATOM      9  H3  UNL d   1      -1.484   2.919  -0.100  0.00  0.00     0.395 HD
ENDBRANCH   1   7
TORSDOF 1
ENDMDL
