MODEL 1
REMARK minimizedAffinity -3.75202918
REMARK minimizedRMSD -1
REMARK  1 active torsions:
REMARK  status: ('A' for Active; 'I' for Inactive)
REMARK    1  A    between atoms: N_2  and  C1_3 
ROOT
ATOM      1  C1  UNL d   1       0.101  -0.439   0.645  0.00  0.00     0.143 A 
ATOM      2  C2  UNL d   1       1.380  -1.007   0.633  0.00  0.00    -0.057 A 
ATOM      3  C3  UNL d   1       1.839  -1.783   1.705  0.00  0.00     0.033 A 
ATOM      4  C4  UNL d   1       1.036  -1.980   2.823  0.00  0.00    -0.042 A 
ATOM      5  C5  UNL d   1      -0.229  -1.405   2.867  0.00  0.00     0.033 A 
ATOM      6  C6  UNL d   1      -0.685  -0.637   1.791  0.00  0.00    -0.057 A 
ENDROOT
BRANCH   1   7
ATOM      7  N   UNL d   1      -0.376   0.423  -0.346  0.00  0.00    -0.732 N 
ATOM      8  C   UNL d   1      -0.773   1.775  -0.017  0.00  0.00     0.284 C 
ATOM      9  H3  UNL d   1       0.147   0.343  -1.215  0.00  0.00     0.395 HD
ENDBRANCH   1   7
TORSDOF 1
ENDMDL
