MODEL 1
REMARK minimizedAffinity -3.65093827
REMARK minimizedRMSD -1
REMARK  1 active torsions:
REMARK  status: ('A' for Active; 'I' for Inactive)
REMARK    1  A    between atoms: N_2  and  C1_3 
ROOT
ATOM      1  C1  UNL d   1      -0.095   0.299   0.284  0.00  0.00     0.143 A 
ATOM      2  C2  UNL d   1      -0.598  -0.245   1.471  0.00  0.00    -0.057 A 
ATOM      3  C3  UNL d   1       0.156  -1.145   2.234  0.00  0.00     0.033 A 
ATOM      4  C4  UNL d   1       1.419  -1.541   1.806  0.00  0.00    -0.042 A 
ATOM      5  C5  UNL d   1       1.928  -1.033   0.616  0.00  0.00     0.033 A 
ATOM      6  C6  UNL d   1       1.173  -0.129  -0.138  0.00  0.00    -0.057 A 
ENDROOT
BRANCH   1   7
ATOM      7  N   UNL d   1      -0.835   1.122  -0.569  0.00  0.00    -0.732 N 
ATOM      8  C   UNL d   1      -1.716   0.550  -1.564  0.00  0.00     0.284 C 
ATOM      9  H3  UNL d   1      -1.221   1.932  -0.089  0.00  0.00     0.395 HD
ENDBRANCH   1   7
TORSDOF 1
ENDMDL
