MODEL 1
REMARK minimizedAffinity -5.12747002
REMARK minimizedRMSD -1
REMARK  1 active torsions:
REMARK  status: ('A' for Active; 'I' for Inactive)
REMARK    1  A    between atoms: N_2  and  C1_3 
ROOT
ATOM      1  C1  UNL d   1      -0.201   0.326   0.008  0.00  0.00     0.143 A 
ATOM      2  C2  UNL d   1       1.156   0.353  -0.333  0.00  0.00    -0.057 A 
ATOM      3  C3  UNL d   1       2.014  -0.695   0.021  0.00  0.00     0.033 A 
ATOM      4  C4  UNL d   1       1.536  -1.778   0.751  0.00  0.00    -0.042 A 
ATOM      5  C5  UNL d   1       0.196  -1.813   1.123  0.00  0.00     0.033 A 
ATOM      6  C6  UNL d   1      -0.658  -0.767   0.760  0.00  0.00    -0.057 A 
ENDROOT
BRANCH   1   7
ATOM      7  N   UNL d   1      -1.083   1.383  -0.230  0.00  0.00    -0.732 N 
ATOM      8  C   UNL d   1      -1.736   1.523  -1.514  0.00  0.00     0.284 C 
ATOM      9  H3  UNL d   1      -1.688   1.570   0.566  0.00  0.00     0.395 HD
ENDBRANCH   1   7
TORSDOF 1
ENDMDL
