MODEL 1
REMARK minimizedAffinity -2.79488921
REMARK minimizedRMSD -1
REMARK  1 active torsions:
REMARK  status: ('A' for Active; 'I' for Inactive)
REMARK    1  A    between atoms: N_2  and  C1_3 
ROOT
ATOM      1  C1  UNL d   1       0.557  -1.337   1.906  0.00  0.00     0.143 A 
ATOM      2  C2  UNL d   1       1.684  -1.800   1.219  0.00  0.00    -0.057 A 
ATOM      3  C3  UNL d   1       1.999  -1.326  -0.061  0.00  0.00     0.033 A 
ATOM      4  C4  UNL d   1       1.173  -0.400  -0.689  0.00  0.00    -0.042 A 
ATOM      5  C5  UNL d   1       0.034   0.055  -0.034  0.00  0.00     0.033 A 
ATOM      6  C6  UNL d   1      -0.271  -0.416   1.246  0.00  0.00    -0.057 A 
ENDROOT
BRANCH   1   7
ATOM      7  N   UNL d   1       0.136  -1.842   3.139  0.00  0.00    -0.732 N 
ATOM      8  C   UNL d   1      -1.072  -1.350   3.764  0.00  0.00     0.284 C 
ATOM      9  H3  UNL d   1       0.259  -2.850   3.208  0.00  0.00     0.395 HD
ENDBRANCH   1   7
TORSDOF 1
ENDMDL
