MODEL 1
REMARK minimizedAffinity -1.548437
REMARK minimizedRMSD -1
REMARK  1 active torsions:
REMARK  status: ('A' for Active; 'I' for Inactive)
REMARK    1  A    between atoms: N_2  and  C1_3 
ROOT
ATOM      1  C1  UNL d   1      -1.063   1.463  -1.056  0.00  0.00     0.143 A 
ATOM      2  C2  UNL d   1      -0.807   2.603  -1.825  0.00  0.00    -0.057 A 
ATOM      3  C3  UNL d   1      -1.487   2.837  -3.026  0.00  0.00     0.033 A 
ATOM      4  C4  UNL d   1      -2.418   1.916  -3.496  0.00  0.00    -0.042 A 
ATOM      5  C5  UNL d   1      -2.670   0.763  -2.760  0.00  0.00     0.033 A 
ATOM      6  C6  UNL d   1      -1.992   0.539  -1.558  0.00  0.00    -0.057 A 
ENDROOT
BRANCH   1   7
ATOM      7  N   UNL d   1      -0.349   1.126   0.097  0.00  0.00    -0.732 N 
ATOM      8  C   UNL d   1       0.492  -0.052   0.125  0.00  0.00     0.284 C 
ATOM      9  H3  UNL d   1       0.060   1.939   0.552  0.00  0.00     0.395 HD
ENDBRANCH   1   7
TORSDOF 1
ENDMDL
