MODEL 1
REMARK minimizedAffinity -3.85793018
REMARK minimizedRMSD -1
REMARK  1 active torsions:
REMARK  status: ('A' for Active; 'I' for Inactive)
REMARK    1  A    between atoms: N_2  and  C1_3 
ROOT
ATOM      1  C1  UNL d   1       0.233   0.080  -0.145  0.00  0.00     0.143 A 
ATOM      2  C2  UNL d   1       0.416  -0.992   0.734  0.00  0.00    -0.057 A 
ATOM      3  C3  UNL d   1       1.603  -1.735   0.737  0.00  0.00     0.033 A 
ATOM      4  C4  UNL d   1       2.619  -1.435  -0.164  0.00  0.00    -0.042 A 
ATOM      5  C5  UNL d   1       2.450  -0.390  -1.064  0.00  0.00     0.033 A 
ATOM      6  C6  UNL d   1       1.265   0.353  -1.057  0.00  0.00    -0.057 A 
ENDROOT
BRANCH   1   7
ATOM      7  N   UNL d   1      -0.962   0.794  -0.263  0.00  0.00    -0.732 N 
ATOM      8  C   UNL d   1      -1.264   1.531  -1.472  0.00  0.00     0.284 C 
ATOM      9  H3  UNL d   1      -1.756   0.290   0.126  0.00  0.00     0.395 HD
ENDBRANCH   1   7
TORSDOF 1
ENDMDL
