MODEL 1
REMARK minimizedAffinity -2.60579395
REMARK minimizedRMSD -1
REMARK  1 active torsions:
REMARK  status: ('A' for Active; 'I' for Inactive)
REMARK    1  A    between atoms: N_2  and  C1_3 
ROOT
ATOM      1  C1  UNL d   1       0.047  -1.210   1.481  0.00  0.00     0.143 A 
ATOM      2  C2  UNL d   1      -0.316  -0.059   0.775  0.00  0.00    -0.057 A 
ATOM      3  C3  UNL d   1       0.496   0.455  -0.243  0.00  0.00     0.033 A 
ATOM      4  C4  UNL d   1       1.705  -0.159  -0.553  0.00  0.00    -0.042 A 
ATOM      5  C5  UNL d   1       2.098  -1.291   0.153  0.00  0.00     0.033 A 
ATOM      6  C6  UNL d   1       1.279  -1.803   1.163  0.00  0.00    -0.057 A 
ENDROOT
BRANCH   1   7
ATOM      7  N   UNL d   1      -0.670  -1.714   2.570  0.00  0.00    -0.732 N 
ATOM      8  C   UNL d   1      -1.795  -0.983   3.113  0.00  0.00     0.284 C 
ATOM      9  H3  UNL d   1      -0.818  -2.718   2.506  0.00  0.00     0.395 HD
ENDBRANCH   1   7
TORSDOF 1
ENDMDL
