MODEL 1
REMARK minimizedAffinity -3.50633621
REMARK minimizedRMSD -1
REMARK  1 active torsions:
REMARK  status: ('A' for Active; 'I' for Inactive)
REMARK    1  A    between atoms: N_2  and  C1_3 
ROOT
ATOM      1  C1  UNL d   1      -0.824   0.970  -1.191  0.00  0.00     0.143 A 
ATOM      2  C2  UNL d   1      -0.587  -0.408  -1.127  0.00  0.00    -0.057 A 
ATOM      3  C3  UNL d   1       0.564  -0.919  -0.515  0.00  0.00     0.033 A 
ATOM      4  C4  UNL d   1       1.516  -0.057   0.019  0.00  0.00    -0.042 A 
ATOM      5  C5  UNL d   1       1.313   1.317  -0.055  0.00  0.00     0.033 A 
ATOM      6  C6  UNL d   1       0.159   1.821  -0.661  0.00  0.00    -0.057 A 
ENDROOT
BRANCH   1   7
ATOM      7  N   UNL d   1      -1.901   1.543  -1.872  0.00  0.00    -0.732 N 
ATOM      8  C   UNL d   1      -1.821   1.798  -3.294  0.00  0.00     0.284 C 
ATOM      9  H3  UNL d   1      -2.797   1.171  -1.566  0.00  0.00     0.395 HD
ENDBRANCH   1   7
TORSDOF 1
ENDMDL
