MODEL 1
REMARK minimizedAffinity -2.25279331
REMARK minimizedRMSD -1
REMARK  1 active torsions:
REMARK  status: ('A' for Active; 'I' for Inactive)
REMARK    1  A    between atoms: N_2  and  C1_3 
ROOT
ATOM      1  C1  UNL d   1      -0.598   0.637  -0.772  0.00  0.00     0.143 A 
ATOM      2  C2  UNL d   1      -1.330   0.087  -1.830  0.00  0.00    -0.057 A 
ATOM      3  C3  UNL d   1      -2.159   0.883  -2.630  0.00  0.00     0.033 A 
ATOM      4  C4  UNL d   1      -2.292   2.243  -2.368  0.00  0.00    -0.042 A 
ATOM      5  C5  UNL d   1      -1.592   2.806  -1.306  0.00  0.00     0.033 A 
ATOM      6  C6  UNL d   1      -0.762   2.007  -0.515  0.00  0.00    -0.057 A 
ENDROOT
BRANCH   1   7
ATOM      7  N   UNL d   1       0.166  -0.119   0.120  0.00  0.00    -0.732 N 
ATOM      8  C   UNL d   1       1.541  -0.451  -0.184  0.00  0.00     0.284 C 
ATOM      9  H3  UNL d   1       0.007   0.147   1.089  0.00  0.00     0.395 HD
ENDBRANCH   1   7
TORSDOF 1
ENDMDL
