MODEL 1
REMARK minimizedAffinity -3.74344659
REMARK minimizedRMSD -1
REMARK  1 active torsions:
REMARK  status: ('A' for Active; 'I' for Inactive)
REMARK    1  A    between atoms: N_2  and  C1_3 
ROOT
ATOM      1  C1  UNL d   1      -1.456   0.636  -1.354  0.00  0.00     0.143 A 
ATOM      2  C2  UNL d   1      -0.833  -0.568  -1.702  0.00  0.00    -0.057 A 
ATOM      3  C3  UNL d   1       0.346  -0.984  -1.072  0.00  0.00     0.033 A 
ATOM      4  C4  UNL d   1       0.941  -0.187  -0.099  0.00  0.00    -0.042 A 
ATOM      5  C5  UNL d   1       0.353   1.025   0.244  0.00  0.00     0.033 A 
ATOM      6  C6  UNL d   1      -0.828   1.432  -0.384  0.00  0.00    -0.057 A 
ENDROOT
BRANCH   1   7
ATOM      7  N   UNL d   1      -2.575   1.151  -2.013  0.00  0.00    -0.732 N 
ATOM      8  C   UNL d   1      -2.436   2.229  -2.969  0.00  0.00     0.284 C 
ATOM      9  H3  UNL d   1      -3.227   0.424  -2.298  0.00  0.00     0.395 HD
ENDBRANCH   1   7
TORSDOF 1
ENDMDL
