MODEL 1
REMARK minimizedAffinity -0.983995318
REMARK minimizedRMSD -1
REMARK  1 active torsions:
REMARK  status: ('A' for Active; 'I' for Inactive)
REMARK    1  A    between atoms: N_2  and  C1_3 
ROOT
ATOM      1  C1  UNL d   1      -1.304   3.267  -3.822  0.00  0.00     0.143 A 
ATOM      2  C2  UNL d   1      -2.406   2.465  -4.136  0.00  0.00    -0.057 A 
ATOM      3  C3  UNL d   1      -3.002   1.641  -3.174  0.00  0.00     0.033 A 
ATOM      4  C4  UNL d   1      -2.485   1.581  -1.884  0.00  0.00    -0.042 A 
ATOM      5  C5  UNL d   1      -1.374   2.351  -1.556  0.00  0.00     0.033 A 
ATOM      6  C6  UNL d   1      -0.788   3.177  -2.520  0.00  0.00    -0.057 A 
ENDROOT
BRANCH   1   7
ATOM      7  N   UNL d   1      -0.607   4.033  -4.760  0.00  0.00    -0.732 N 
ATOM      8  C   UNL d   1       0.082   5.241  -4.360  0.00  0.00     0.284 C 
ATOM      9  H3  UNL d   1      -0.090   3.460  -5.423  0.00  0.00     0.395 HD
ENDBRANCH   1   7
TORSDOF 1
ENDMDL
