MODEL 1
REMARK minimizedAffinity 5.10251093
REMARK minimizedRMSD -1
REMARK  0 active torsions:
REMARK  status: ('A' for Active; 'I' for Inactive)
ROOT
ATOM      1  C   UNL d   1       4.989   2.947   3.833  0.00  0.00     0.078 C 
ATOM      2  C1  UNL d   1       4.020   4.009   4.260  0.00  0.00    -0.077 A 
ATOM      3  C2  UNL d   1       3.554   4.967   3.351  0.00  0.00    -0.001 A 
ATOM      4  C3  UNL d   1       2.660   5.956   3.764  0.00  0.00     0.003 A 
ATOM      5  C4  UNL d   1       2.225   5.998   5.088  0.00  0.00    -0.005 A 
ATOM      6  C5  UNL d   1       2.686   5.050   6.000  0.00  0.00     0.003 A 
ATOM      7  C6  UNL d   1       3.580   4.061   5.588  0.00  0.00    -0.001 A 
ENDROOT
TORSDOF 0
ENDMDL
