MODEL 1
REMARK minimizedAffinity 1.88501656
REMARK minimizedRMSD -1
REMARK  0 active torsions:
REMARK  status: ('A' for Active; 'I' for Inactive)
ROOT
ATOM      1  C   UNL d   1       1.708  -4.111   4.136  0.00  0.00     0.078 C 
ATOM      2  C1  UNL d   1       0.384  -4.403   4.776  0.00  0.00    -0.077 A 
ATOM      3  C2  UNL d   1      -0.356  -3.389   5.397  0.00  0.00    -0.001 A 
ATOM      4  C3  UNL d   1      -1.583  -3.676   5.998  0.00  0.00     0.003 A 
ATOM      5  C4  UNL d   1      -2.080  -4.978   5.985  0.00  0.00    -0.005 A 
ATOM      6  C5  UNL d   1      -1.350  -5.994   5.371  0.00  0.00     0.003 A 
ATOM      7  C6  UNL d   1      -0.123  -5.708   4.770  0.00  0.00    -0.001 A 
ENDROOT
TORSDOF 0
ENDMDL
