MODEL 1
REMARK minimizedAffinity 6.7664957
REMARK minimizedRMSD -1
REMARK  0 active torsions:
REMARK  status: ('A' for Active; 'I' for Inactive)
ROOT
ATOM      1  C   UNL d   1      -3.043  -0.450   1.765  0.00  0.00     0.078 C 
ATOM      2  C1  UNL d   1      -1.675  -0.468   1.151  0.00  0.00    -0.077 A 
ATOM      3  C2  UNL d   1      -0.537  -0.183   1.916  0.00  0.00    -0.001 A 
ATOM      4  C3  UNL d   1       0.729  -0.194   1.329  0.00  0.00     0.003 A 
ATOM      5  C4  UNL d   1       0.870  -0.488  -0.026  0.00  0.00    -0.005 A 
ATOM      6  C5  UNL d   1      -0.257  -0.771  -0.795  0.00  0.00     0.003 A 
ATOM      7  C6  UNL d   1      -1.524  -0.761  -0.210  0.00  0.00    -0.001 A 
ENDROOT
TORSDOF 0
ENDMDL
