MODEL 1
REMARK minimizedAffinity 6.60507536
REMARK minimizedRMSD -1
REMARK  0 active torsions:
REMARK  status: ('A' for Active; 'I' for Inactive)
ROOT
ATOM      1  C   UNL d   1      -0.943  -1.317  -1.700  0.00  0.00     0.078 C 
ATOM      2  C1  UNL d   1      -0.281  -0.765  -0.472  0.00  0.00    -0.077 A 
ATOM      3  C2  UNL d   1      -0.987  -0.632   0.730  0.00  0.00    -0.001 A 
ATOM      4  C3  UNL d   1      -0.360  -0.108   1.862  0.00  0.00     0.003 A 
ATOM      5  C4  UNL d   1       0.975   0.287   1.803  0.00  0.00    -0.005 A 
ATOM      6  C5  UNL d   1       1.685   0.160   0.610  0.00  0.00     0.003 A 
ATOM      7  C6  UNL d   1       1.060  -0.363  -0.523  0.00  0.00    -0.001 A 
ENDROOT
TORSDOF 0
ENDMDL
