MODEL 1
REMARK minimizedAffinity 7.44687366
REMARK minimizedRMSD -1
REMARK  0 active torsions:
REMARK  status: ('A' for Active; 'I' for Inactive)
ROOT
ATOM      1  C   UNL d   1      -1.100  -1.382  -1.142  0.00  0.00     0.078 C 
ATOM      2  C1  UNL d   1      -0.168  -0.974  -0.042  0.00  0.00    -0.077 A 
ATOM      3  C2  UNL d   1       1.218  -0.950  -0.242  0.00  0.00    -0.001 A 
ATOM      4  C3  UNL d   1       2.075  -0.577   0.794  0.00  0.00     0.003 A 
ATOM      5  C4  UNL d   1       1.556  -0.227   2.039  0.00  0.00    -0.005 A 
ATOM      6  C5  UNL d   1       0.179  -0.249   2.249  0.00  0.00     0.003 A 
ATOM      7  C6  UNL d   1      -0.680  -0.622   1.214  0.00  0.00    -0.001 A 
ENDROOT
TORSDOF 0
ENDMDL
