MODEL 1
REMARK minimizedAffinity 9.13756752
REMARK minimizedRMSD -1
REMARK  0 active torsions:
REMARK  status: ('A' for Active; 'I' for Inactive)
ROOT
ATOM      1  C   UNL d   1      -5.999  -0.417  -3.496  0.00  0.00     0.078 C 
ATOM      2  C1  UNL d   1      -5.304  -0.382  -2.168  0.00  0.00    -0.077 A 
ATOM      3  C2  UNL d   1      -3.958  -0.009  -2.067  0.00  0.00    -0.001 A 
ATOM      4  C3  UNL d   1      -3.322   0.009  -0.826  0.00  0.00     0.003 A 
ATOM      5  C4  UNL d   1      -4.022  -0.346   0.325  0.00  0.00    -0.005 A 
ATOM      6  C5  UNL d   1      -5.361  -0.721   0.235  0.00  0.00     0.003 A 
ATOM      7  C6  UNL d   1      -6.000  -0.740  -1.006  0.00  0.00    -0.001 A 
ENDROOT
TORSDOF 0
ENDMDL
