MODEL 1
REMARK minimizedAffinity 2.24939418
REMARK minimizedRMSD -1
REMARK  0 active torsions:
REMARK  status: ('A' for Active; 'I' for Inactive)
ROOT
ATOM      1  C   UNL d   1      -3.400  -0.932   0.827  0.00  0.00     0.078 C 
ATOM      2  C1  UNL d   1      -1.918  -0.708   0.839  0.00  0.00    -0.077 A 
ATOM      3  C2  UNL d   1      -1.153  -0.877  -0.322  0.00  0.00    -0.001 A 
ATOM      4  C3  UNL d   1       0.228  -0.675  -0.294  0.00  0.00     0.003 A 
ATOM      5  C4  UNL d   1       0.856  -0.304   0.893  0.00  0.00    -0.005 A 
ATOM      6  C5  UNL d   1       0.104  -0.136   2.054  0.00  0.00     0.003 A 
ATOM      7  C6  UNL d   1      -1.277  -0.338   2.028  0.00  0.00    -0.001 A 
ENDROOT
TORSDOF 0
ENDMDL
