MODEL 1
REMARK minimizedAffinity 1.78074992
REMARK minimizedRMSD -1
REMARK  0 active torsions:
REMARK  status: ('A' for Active; 'I' for Inactive)
ROOT
ATOM      1  C   UNL d   1       2.215  -4.858   6.000  0.00  0.00     0.078 C 
ATOM      2  C1  UNL d   1       0.799  -4.932   5.511  0.00  0.00    -0.077 A 
ATOM      3  C2  UNL d   1       0.309  -4.009   4.580  0.00  0.00    -0.001 A 
ATOM      4  C3  UNL d   1      -1.014  -4.083   4.141  0.00  0.00     0.003 A 
ATOM      5  C4  UNL d   1      -1.858  -5.078   4.630  0.00  0.00    -0.005 A 
ATOM      6  C5  UNL d   1      -1.380  -6.000   5.559  0.00  0.00     0.003 A 
ATOM      7  C6  UNL d   1      -0.057  -5.927   5.999  0.00  0.00    -0.001 A 
ENDROOT
TORSDOF 0
ENDMDL
