MODEL 1
REMARK minimizedAffinity 3.01301026
REMARK minimizedRMSD -1
REMARK  0 active torsions:
REMARK  status: ('A' for Active; 'I' for Inactive)
ROOT
ATOM      1  C   UNL d   1      -0.927  -2.805  -2.515  0.00  0.00     0.078 C 
ATOM      2  C1  UNL d   1      -0.378  -1.772  -1.577  0.00  0.00    -0.077 A 
ATOM      3  C2  UNL d   1      -0.995  -0.522  -1.439  0.00  0.00    -0.001 A 
ATOM      4  C3  UNL d   1      -0.467   0.433  -0.568  0.00  0.00     0.003 A 
ATOM      5  C4  UNL d   1       0.680   0.149   0.170  0.00  0.00    -0.005 A 
ATOM      6  C5  UNL d   1       1.302  -1.090   0.037  0.00  0.00     0.003 A 
ATOM      7  C6  UNL d   1       0.776  -2.047  -0.832  0.00  0.00    -0.001 A 
ENDROOT
TORSDOF 0
ENDMDL
