MODEL 1
REMARK minimizedAffinity -4.44342041
REMARK minimizedRMSD -1
REMARK  0 active torsions:
REMARK  status: ('A' for Active; 'I' for Inactive)
ROOT
ATOM      1  C1  DEN d   1      -1.811  -1.415   0.632  0.00  0.00     0.130 A 
ATOM      2  C2  DEN d   1      -1.722  -1.880   2.014  0.00  0.00    -0.031 A 
ATOM      3  C3  DEN d   1      -0.739  -1.032   2.718  0.00  0.00     0.027 A 
ATOM      4  C4  DEN d   1       0.640   0.949   1.810  0.00  0.00     0.027 A 
ATOM      5  C5  DEN d   1       0.914   1.709   0.693  0.00  0.00    -0.003 A 
ATOM      6  C6  DEN d   1       0.328   1.461  -0.520  0.00  0.00     0.001 A 
ATOM      7  C7  DEN d   1      -0.595   0.456  -0.635  0.00  0.00     0.017 A 
ATOM      8  C8  DEN d   1      -0.871  -0.319   0.484  0.00  0.00    -0.094 A 
ATOM      9  C9  DEN d   1      -0.278  -0.045   1.705  0.00  0.00    -0.072 A 
ENDROOT
TORSDOF 0
ENDMDL
