MODEL 1
REMARK minimizedAffinity -5.61568117
REMARK minimizedRMSD -1
REMARK  0 active torsions:
REMARK  status: ('A' for Active; 'I' for Inactive)
ROOT
ATOM      1  C1  DEN d   1      -0.804   0.576   2.461  0.00  0.00     0.130 A 
ATOM      2  C2  DEN d   1       0.606   0.208   2.558  0.00  0.00    -0.031 A 
ATOM      3  C3  DEN d   1       1.130   0.043   1.188  0.00  0.00     0.027 A 
ATOM      4  C4  DEN d   1      -0.096   0.327  -1.064  0.00  0.00     0.027 A 
ATOM      5  C5  DEN d   1      -1.305   0.621  -1.654  0.00  0.00    -0.003 A 
ATOM      6  C6  DEN d   1      -2.431   0.886  -0.920  0.00  0.00     0.001 A 
ATOM      7  C7  DEN d   1      -2.360   0.906   0.448  0.00  0.00     0.017 A 
ATOM      8  C8  DEN d   1      -1.146   0.602   1.051  0.00  0.00    -0.094 A 
ATOM      9  C9  DEN d   1      -0.017   0.349   0.291  0.00  0.00    -0.072 A 
ENDROOT
TORSDOF 0
ENDMDL
