MODEL 1
REMARK minimizedAffinity -3.48558021
REMARK minimizedRMSD -1
REMARK  0 active torsions:
REMARK  status: ('A' for Active; 'I' for Inactive)
ROOT
ATOM      1  C1  DEN d   1       0.715   0.128   0.429  0.00  0.00     0.130 A 
ATOM      2  C2  DEN d   1      -0.028   0.261  -0.821  0.00  0.00    -0.031 A 
ATOM      3  C3  DEN d   1      -1.442   0.526  -0.485  0.00  0.00     0.027 A 
ATOM      4  C4  DEN d   1      -2.544   0.749   1.836  0.00  0.00     0.027 A 
ATOM      5  C5  DEN d   1      -2.320   0.703   3.194  0.00  0.00    -0.003 A 
ATOM      6  C6  DEN d   1      -1.085   0.431   3.722  0.00  0.00     0.001 A 
ATOM      7  C7  DEN d   1      -0.017   0.238   2.886  0.00  0.00     0.017 A 
ATOM      8  C8  DEN d   1      -0.237   0.276   1.515  0.00  0.00    -0.094 A 
ATOM      9  C9  DEN d   1      -1.490   0.565   1.001  0.00  0.00    -0.072 A 
ENDROOT
TORSDOF 0
ENDMDL
