MODEL 1
REMARK minimizedAffinity 1.97637856
REMARK minimizedRMSD -1
REMARK  0 active torsions:
REMARK  status: ('A' for Active; 'I' for Inactive)
ROOT
ATOM      1  C1  DEN d   1      -3.200   1.035   0.632  0.00  0.00     0.130 A 
ATOM      2  C2  DEN d   1      -3.720   1.330   1.965  0.00  0.00    -0.031 A 
ATOM      3  C3  DEN d   1      -2.577   1.384   2.899  0.00  0.00     0.027 A 
ATOM      4  C4  DEN d   1      -0.067   1.048   2.412  0.00  0.00     0.027 A 
ATOM      5  C5  DEN d   1       0.859   0.765   1.432  0.00  0.00    -0.003 A 
ATOM      6  C6  DEN d   1       0.496   0.521   0.134  0.00  0.00     0.001 A 
ATOM      7  C7  DEN d   1      -0.823   0.600  -0.229  0.00  0.00     0.017 A 
ATOM      8  C8  DEN d   1      -1.762   0.877   0.756  0.00  0.00    -0.094 A 
ATOM      9  C9  DEN d   1      -1.374   1.133   2.060  0.00  0.00    -0.072 A 
ENDROOT
TORSDOF 0
ENDMDL
