MODEL 1
REMARK minimizedAffinity -6.43816519
REMARK minimizedRMSD -1
REMARK  0 active torsions:
REMARK  status: ('A' for Active; 'I' for Inactive)
ROOT
ATOM      1  C1  DEN d   1      -1.098   0.568  -0.888  0.00  0.00     0.130 A 
ATOM      2  C2  DEN d   1       0.351   0.394  -0.952  0.00  0.00    -0.031 A 
ATOM      3  C3  DEN d   1       0.831   0.061   0.405  0.00  0.00     0.027 A 
ATOM      4  C4  DEN d   1      -0.522  -0.206   2.585  0.00  0.00     0.027 A 
ATOM      5  C5  DEN d   1      -1.781  -0.143   3.139  0.00  0.00    -0.003 A 
ATOM      6  C6  DEN d   1      -2.887   0.192   2.404  0.00  0.00     0.001 A 
ATOM      7  C7  DEN d   1      -2.762   0.433   1.061  0.00  0.00     0.017 A 
ATOM      8  C8  DEN d   1      -1.494   0.378   0.496  0.00  0.00    -0.094 A 
ATOM      9  C9  DEN d   1      -0.390   0.026   1.254  0.00  0.00    -0.072 A 
ENDROOT
TORSDOF 0
ENDMDL
