MODEL 1
REMARK minimizedAffinity -4.92767715
REMARK minimizedRMSD -1
REMARK  0 active torsions:
REMARK  status: ('A' for Active; 'I' for Inactive)
ROOT
ATOM      1  C1  DEN d   1       0.168   1.001  -0.040  0.00  0.00     0.130 A 
ATOM      2  C2  DEN d   1       1.447   0.894   0.655  0.00  0.00    -0.031 A 
ATOM      3  C3  DEN d   1       1.201   0.268   1.970  0.00  0.00     0.027 A 
ATOM      4  C4  DEN d   1      -1.025  -0.544   2.989  0.00  0.00     0.027 A 
ATOM      5  C5  DEN d   1      -2.382  -0.653   2.779  0.00  0.00    -0.003 A 
ATOM      6  C6  DEN d   1      -2.984  -0.192   1.639  0.00  0.00     0.001 A 
ATOM      7  C7  DEN d   1      -2.220   0.360   0.644  0.00  0.00     0.017 A 
ATOM      8  C8  DEN d   1      -0.853   0.480   0.851  0.00  0.00    -0.094 A 
ATOM      9  C9  DEN d   1      -0.261  -0.003   2.006  0.00  0.00    -0.072 A 
ENDROOT
TORSDOF 0
ENDMDL
