MODEL 1
REMARK minimizedAffinity -2.14648724
REMARK minimizedRMSD -1
REMARK  0 active torsions:
REMARK  status: ('A' for Active; 'I' for Inactive)
ROOT
ATOM      1  C1  DEN d   1      -2.911   0.933   0.645  0.00  0.00     0.130 A 
ATOM      2  C2  DEN d   1      -3.511   1.125   1.963  0.00  0.00    -0.031 A 
ATOM      3  C3  DEN d   1      -2.434   1.053   2.970  0.00  0.00     0.027 A 
ATOM      4  C4  DEN d   1       0.093   0.671   2.619  0.00  0.00     0.027 A 
ATOM      5  C5  DEN d   1       1.074   0.444   1.679  0.00  0.00    -0.003 A 
ATOM      6  C6  DEN d   1       0.793   0.331   0.343  0.00  0.00     0.001 A 
ATOM      7  C7  DEN d   1      -0.495   0.490  -0.096  0.00  0.00     0.017 A 
ATOM      8  C8  DEN d   1      -1.491   0.712   0.847  0.00  0.00    -0.094 A 
ATOM      9  C9  DEN d   1      -1.185   0.834   2.192  0.00  0.00    -0.072 A 
ENDROOT
TORSDOF 0
ENDMDL
