MODEL 1
REMARK minimizedAffinity -2.19564366
REMARK minimizedRMSD -1
REMARK  0 active torsions:
REMARK  status: ('A' for Active; 'I' for Inactive)
ROOT
ATOM      1  C1  DEN d   1      -1.382  -0.112  -0.866  0.00  0.00     0.130 A 
ATOM      2  C2  DEN d   1      -0.271   0.490  -1.598  0.00  0.00    -0.031 A 
ATOM      3  C3  DEN d   1       0.822   0.747  -0.639  0.00  0.00     0.027 A 
ATOM      4  C4  DEN d   1       0.904   0.270   1.894  0.00  0.00     0.027 A 
ATOM      5  C5  DEN d   1       0.194  -0.223   2.967  0.00  0.00    -0.003 A 
ATOM      6  C6  DEN d   1      -1.092  -0.678   2.845  0.00  0.00     0.001 A 
ATOM      7  C7  DEN d   1      -1.693  -0.692   1.614  0.00  0.00     0.017 A 
ATOM      8  C8  DEN d   1      -0.987  -0.190   0.529  0.00  0.00    -0.094 A 
ATOM      9  C9  DEN d   1       0.317   0.255   0.671  0.00  0.00    -0.072 A 
ENDROOT
TORSDOF 0
ENDMDL
