MODEL 1
REMARK minimizedAffinity -3.84574747
REMARK minimizedRMSD -1
REMARK  0 active torsions:
REMARK  status: ('A' for Active; 'I' for Inactive)
ROOT
ATOM      1  C1  DEN d   1      -0.909   0.152  -0.584  0.00  0.00     0.130 A 
ATOM      2  C2  DEN d   1       0.391   0.785  -0.791  0.00  0.00    -0.031 A 
ATOM      3  C3  DEN d   1       0.986   1.048   0.535  0.00  0.00     0.027 A 
ATOM      4  C4  DEN d   1       0.029   0.535   2.874  0.00  0.00     0.027 A 
ATOM      5  C5  DEN d   1      -1.048   0.013   3.557  0.00  0.00    -0.003 A 
ATOM      6  C6  DEN d   1      -2.159  -0.465   2.913  0.00  0.00     0.001 A 
ATOM      7  C7  DEN d   1      -2.200  -0.471   1.544  0.00  0.00     0.017 A 
ATOM      8  C8  DEN d   1      -1.121   0.060   0.849  0.00  0.00    -0.094 A 
ATOM      9  C9  DEN d   1      -0.002   0.527   1.517  0.00  0.00    -0.072 A 
ENDROOT
TORSDOF 0
ENDMDL
