MODEL 1
REMARK minimizedAffinity -3.48292685
REMARK minimizedRMSD -1
REMARK  0 active torsions:
REMARK  status: ('A' for Active; 'I' for Inactive)
ROOT
ATOM      1  C1  DEN d   1       1.102   1.014   0.295  0.00  0.00     0.130 A 
ATOM      2  C2  DEN d   1       0.819   0.507  -1.045  0.00  0.00    -0.031 A 
ATOM      3  C3  DEN d   1      -0.236  -0.520  -0.931  0.00  0.00     0.027 A 
ATOM      4  C4  DEN d   1      -1.456  -1.366   1.178  0.00  0.00     0.027 A 
ATOM      5  C5  DEN d   1      -1.549  -1.242   2.547  0.00  0.00    -0.003 A 
ATOM      6  C6  DEN d   1      -0.748  -0.390   3.259  0.00  0.00     0.001 A 
ATOM      7  C7  DEN d   1       0.151   0.407   2.599  0.00  0.00     0.017 A 
ATOM      8  C8  DEN d   1       0.256   0.282   1.220  0.00  0.00    -0.094 A 
ATOM      9  C9  DEN d   1      -0.572  -0.577   0.517  0.00  0.00    -0.072 A 
ENDROOT
TORSDOF 0
ENDMDL
