MODEL 1
REMARK minimizedAffinity -5.40421534
REMARK minimizedRMSD -1
REMARK  0 active torsions:
REMARK  status: ('A' for Active; 'I' for Inactive)
ROOT
ATOM      1  C1  DEN d   1       0.445  -0.535   1.992  0.00  0.00     0.130 A 
ATOM      2  C2  DEN d   1      -0.386  -0.912   3.132  0.00  0.00    -0.031 A 
ATOM      3  C3  DEN d   1      -1.795  -0.653   2.775  0.00  0.00     0.027 A 
ATOM      4  C4  DEN d   1      -2.767   0.285   0.578  0.00  0.00     0.027 A 
ATOM      5  C5  DEN d   1      -2.452   0.763  -0.676  0.00  0.00    -0.003 A 
ATOM      6  C6  DEN d   1      -1.158   0.872  -1.111  0.00  0.00     0.001 A 
ATOM      7  C7  DEN d   1      -0.132   0.456  -0.304  0.00  0.00     0.017 A 
ATOM      8  C8  DEN d   1      -0.441  -0.019   0.964  0.00  0.00    -0.094 A 
ATOM      9  C9  DEN d   1      -1.757  -0.133   1.381  0.00  0.00    -0.072 A 
ENDROOT
TORSDOF 0
ENDMDL
