MODEL 1
REMARK minimizedAffinity -1.94287562
REMARK minimizedRMSD -1
REMARK  0 active torsions:
REMARK  status: ('A' for Active; 'I' for Inactive)
ROOT
ATOM      1  C1  DEN d   1      -0.207  -0.290  -1.035  0.00  0.00     0.130 A 
ATOM      2  C2  DEN d   1       1.053   0.400  -1.297  0.00  0.00    -0.031 A 
ATOM      3  C3  DEN d   1       1.608   0.843  -0.002  0.00  0.00     0.027 A 
ATOM      4  C4  DEN d   1       0.647   0.526   2.370  0.00  0.00     0.027 A 
ATOM      5  C5  DEN d   1      -0.406   0.013   3.095  0.00  0.00    -0.003 A 
ATOM      6  C6  DEN d   1      -1.474  -0.602   2.497  0.00  0.00     0.001 A 
ATOM      7  C7  DEN d   1      -1.491  -0.760   1.136  0.00  0.00     0.017 A 
ATOM      8  C8  DEN d   1      -0.437  -0.238   0.398  0.00  0.00    -0.094 A 
ATOM      9  C9  DEN d   1       0.639   0.369   1.022  0.00  0.00    -0.072 A 
ENDROOT
TORSDOF 0
ENDMDL
