MODEL 1
REMARK minimizedAffinity -2.68699741
REMARK minimizedRMSD -1
REMARK  0 active torsions:
REMARK  status: ('A' for Active; 'I' for Inactive)
ROOT
ATOM      1  C1  DEN d   1      -1.954   0.416  -0.520  0.00  0.00     0.130 A 
ATOM      2  C2  DEN d   1      -0.917   0.708  -1.505  0.00  0.00    -0.031 A 
ATOM      3  C3  DEN d   1       0.394   0.605  -0.833  0.00  0.00     0.027 A 
ATOM      4  C4  DEN d   1       0.915   0.021   1.625  0.00  0.00     0.027 A 
ATOM      5  C5  DEN d   1       0.360  -0.294   2.846  0.00  0.00    -0.003 A 
ATOM      6  C6  DEN d   1      -0.995  -0.361   3.037  0.00  0.00     0.001 A 
ATOM      7  C7  DEN d   1      -1.840  -0.154   1.979  0.00  0.00     0.017 A 
ATOM      8  C8  DEN d   1      -1.289   0.172   0.747  0.00  0.00    -0.094 A 
ATOM      9  C9  DEN d   1       0.084   0.223   0.571  0.00  0.00    -0.072 A 
ENDROOT
TORSDOF 0
ENDMDL
