MODEL 1
REMARK minimizedAffinity -2.80874252
REMARK minimizedRMSD -1
REMARK  0 active torsions:
REMARK  status: ('A' for Active; 'I' for Inactive)
ROOT
ATOM      1  C1  DEN d   1       4.370  -0.880  -4.241  0.00  0.00     0.130 A 
ATOM      2  C2  DEN d   1       4.935   0.332  -3.653  0.00  0.00    -0.031 A 
ATOM      3  C3  DEN d   1       3.910   0.934  -2.776  0.00  0.00     0.027 A 
ATOM      4  C4  DEN d   1       1.519   0.108  -2.271  0.00  0.00     0.027 A 
ATOM      5  C5  DEN d   1       0.587  -0.868  -2.545  0.00  0.00    -0.003 A 
ATOM      6  C6  DEN d   1       0.837  -1.890  -3.423  0.00  0.00     0.001 A 
ATOM      7  C7  DEN d   1       2.064  -1.984  -4.023  0.00  0.00     0.017 A 
ATOM      8  C8  DEN d   1       3.006  -0.999  -3.758  0.00  0.00    -0.094 A 
ATOM      9  C9  DEN d   1       2.739   0.019  -2.858  0.00  0.00    -0.072 A 
ENDROOT
TORSDOF 0
ENDMDL
