MODEL 1
REMARK minimizedAffinity -3.93240786
REMARK minimizedRMSD -1
REMARK  0 active torsions:
REMARK  status: ('A' for Active; 'I' for Inactive)
ROOT
ATOM      1  C1  DEN d   1      -1.998   0.683  -0.621  0.00  0.00     0.130 A 
ATOM      2  C2  DEN d   1      -0.857   0.828  -1.521  0.00  0.00    -0.031 A 
ATOM      3  C3  DEN d   1       0.356   0.407  -0.791  0.00  0.00     0.027 A 
ATOM      4  C4  DEN d   1       0.577  -0.456   1.629  0.00  0.00     0.027 A 
ATOM      5  C5  DEN d   1      -0.114  -0.741   2.787  0.00  0.00    -0.003 A 
ATOM      6  C6  DEN d   1      -1.464  -0.541   2.899  0.00  0.00     0.001 A 
ATOM      7  C7  DEN d   1      -2.175  -0.084   1.821  0.00  0.00     0.017 A 
ATOM      8  C8  DEN d   1      -1.485   0.213   0.653  0.00  0.00    -0.094 A 
ATOM      9  C9  DEN d   1      -0.121  -0.008   0.555  0.00  0.00    -0.072 A 
ENDROOT
TORSDOF 0
ENDMDL
