MODEL 1
REMARK minimizedAffinity -3.59046125
REMARK minimizedRMSD -1
REMARK  0 active torsions:
REMARK  status: ('A' for Active; 'I' for Inactive)
ROOT
ATOM      1  C   UNL d   1      -1.770  -0.348   1.022  0.00  0.00     0.124 A 
ATOM      2  C1  UNL d   1      -0.932  -0.320   2.128  0.00  0.00     0.062 A 
ATOM      3  C2  UNL d   1       0.301   0.323   2.056  0.00  0.00     0.162 A 
ATOM      4  C3  UNL d   1       0.702   0.943   0.873  0.00  0.00    -0.034 A 
ATOM      5  C4  UNL d   1      -0.146   0.910  -0.235  0.00  0.00     0.162 A 
ATOM      6  C5  UNL d   1      -1.376   0.266  -0.158  0.00  0.00     0.062 A 
ATOM      7  F   UNL d   1      -2.185   0.240  -1.227  0.00  0.00    -0.097 F 
ATOM      8  F1  UNL d   1       0.210   1.496  -1.388  0.00  0.00    -0.096 F 
ATOM      9  I   UNL d   1       2.545   1.905   0.761  0.00  0.00    -0.060 I 
ATOM     10  F2  UNL d   1       1.090   0.334   3.140  0.00  0.00    -0.096 F 
ATOM     11  F3  UNL d   1      -1.310  -0.914   3.270  0.00  0.00    -0.097 F 
ATOM     12  F4  UNL d   1      -2.955  -0.968   1.094  0.00  0.00    -0.092 F 
ENDROOT
TORSDOF 0
ENDMDL
