MODEL 1
REMARK minimizedAffinity -2.58588266
REMARK minimizedRMSD -1
REMARK  0 active torsions:
REMARK  status: ('A' for Active; 'I' for Inactive)
ROOT
ATOM      1  C   UNL d   1      -1.010   0.123   2.057  0.00  0.00     0.124 A 
ATOM      2  C1  UNL d   1       0.325  -0.253   2.006  0.00  0.00     0.062 A 
ATOM      3  C2  UNL d   1       1.000  -0.273   0.789  0.00  0.00     0.162 A 
ATOM      4  C3  UNL d   1       0.342   0.085  -0.387  0.00  0.00    -0.034 A 
ATOM      5  C4  UNL d   1      -1.001   0.462  -0.328  0.00  0.00     0.162 A 
ATOM      6  C5  UNL d   1      -1.672   0.480   0.890  0.00  0.00     0.062 A 
ATOM      7  F   UNL d   1      -2.961   0.844   0.937  0.00  0.00    -0.097 F 
ATOM      8  F1  UNL d   1      -1.664   0.813  -1.440  0.00  0.00    -0.096 F 
ATOM      9  I   UNL d   1       1.349   0.057  -2.209  0.00  0.00    -0.060 I 
ATOM     10  F2  UNL d   1       2.290  -0.641   0.770  0.00  0.00    -0.096 F 
ATOM     11  F3  UNL d   1       0.965  -0.600   3.131  0.00  0.00    -0.097 F 
ATOM     12  F4  UNL d   1      -1.658   0.141   3.228  0.00  0.00    -0.092 F 
ENDROOT
TORSDOF 0
ENDMDL
