MODEL 1
REMARK minimizedAffinity 3.09041238
REMARK minimizedRMSD -1
REMARK  0 active torsions:
REMARK  status: ('A' for Active; 'I' for Inactive)
ROOT
ATOM      1  C   UNL d   1       2.417  -1.001  -3.605  0.00  0.00     0.124 A 
ATOM      2  C1  UNL d   1       2.303   0.181  -2.887  0.00  0.00     0.062 A 
ATOM      3  C2  UNL d   1       1.208   0.391  -2.054  0.00  0.00     0.162 A 
ATOM      4  C3  UNL d   1       0.218  -0.585  -1.932  0.00  0.00    -0.034 A 
ATOM      5  C4  UNL d   1       0.340  -1.771  -2.658  0.00  0.00     0.162 A 
ATOM      6  C5  UNL d   1       1.436  -1.976  -3.490  0.00  0.00     0.062 A 
ATOM      7  F   UNL d   1       1.545  -3.119  -4.183  0.00  0.00    -0.097 F 
ATOM      8  F1  UNL d   1      -0.593  -2.730  -2.565  0.00  0.00    -0.096 F 
ATOM      9  I   UNL d   1      -1.420  -0.275  -0.688  0.00  0.00    -0.060 I 
ATOM     10  F2  UNL d   1       1.123   1.543  -1.372  0.00  0.00    -0.096 F 
ATOM     11  F3  UNL d   1       3.249   1.125  -2.997  0.00  0.00    -0.097 F 
ATOM     12  F4  UNL d   1       3.471  -1.200  -4.407  0.00  0.00    -0.092 F 
ENDROOT
TORSDOF 0
ENDMDL
