MODEL 1
REMARK minimizedAffinity -0.169002503
REMARK minimizedRMSD -1
REMARK  0 active torsions:
REMARK  status: ('A' for Active; 'I' for Inactive)
ROOT
ATOM      1  C   UNL d   1      -0.374  -0.276   2.506  0.00  0.00     0.124 A 
ATOM      2  C1  UNL d   1       0.926   0.123   2.224  0.00  0.00     0.062 A 
ATOM      3  C2  UNL d   1       1.384   0.137   0.910  0.00  0.00     0.162 A 
ATOM      4  C3  UNL d   1       0.542  -0.248  -0.134  0.00  0.00    -0.034 A 
ATOM      5  C4  UNL d   1      -0.763  -0.648   0.158  0.00  0.00     0.162 A 
ATOM      6  C5  UNL d   1      -1.216  -0.661   1.473  0.00  0.00     0.062 A 
ATOM      7  F   UNL d   1      -2.472  -1.046   1.743  0.00  0.00    -0.097 F 
ATOM      8  F1  UNL d   1      -1.599  -1.025  -0.822  0.00  0.00    -0.096 F 
ATOM      9  I   UNL d   1       1.224  -0.228  -2.100  0.00  0.00    -0.060 I 
ATOM     10  F2  UNL d   1       2.645   0.527   0.667  0.00  0.00    -0.096 F 
ATOM     11  F3  UNL d   1       1.742   0.494   3.220  0.00  0.00    -0.097 F 
ATOM     12  F4  UNL d   1      -0.812  -0.290   3.771  0.00  0.00    -0.092 F 
ENDROOT
TORSDOF 0
ENDMDL
