MODEL 1
REMARK minimizedAffinity -3.47039199
REMARK minimizedRMSD -1
REMARK  0 active torsions:
REMARK  status: ('A' for Active; 'I' for Inactive)
ROOT
ATOM      1  C   UNL d   1      -0.445  -0.329   2.091  0.00  0.00     0.124 A 
ATOM      2  C1  UNL d   1       0.812   0.223   1.884  0.00  0.00     0.062 A 
ATOM      3  C2  UNL d   1       1.351   0.277   0.602  0.00  0.00     0.162 A 
ATOM      4  C3  UNL d   1       0.632  -0.221  -0.485  0.00  0.00    -0.034 A 
ATOM      5  C4  UNL d   1      -0.630  -0.776  -0.269  0.00  0.00     0.162 A 
ATOM      6  C5  UNL d   1      -1.164  -0.828   1.014  0.00  0.00     0.062 A 
ATOM      7  F   UNL d   1      -2.378  -1.362   1.212  0.00  0.00    -0.097 F 
ATOM      8  F1  UNL d   1      -1.348  -1.265  -1.292  0.00  0.00    -0.096 F 
ATOM      9  I   UNL d   1       1.435  -0.142  -2.404  0.00  0.00    -0.060 I 
ATOM     10  F2  UNL d   1       2.567   0.817   0.432  0.00  0.00    -0.096 F 
ATOM     11  F3  UNL d   1       1.510   0.705   2.923  0.00  0.00    -0.097 F 
ATOM     12  F4  UNL d   1      -0.960  -0.381   3.325  0.00  0.00    -0.092 F 
ENDROOT
TORSDOF 0
ENDMDL
