MODEL 1
REMARK minimizedAffinity -1.06430459
REMARK minimizedRMSD -1
REMARK  0 active torsions:
REMARK  status: ('A' for Active; 'I' for Inactive)
ROOT
ATOM      1  C   UNL d   1      -1.632  -0.459   1.871  0.00  0.00     0.124 A 
ATOM      2  C1  UNL d   1      -0.277  -0.758   1.898  0.00  0.00     0.062 A 
ATOM      3  C2  UNL d   1       0.506  -0.564   0.763  0.00  0.00     0.162 A 
ATOM      4  C3  UNL d   1      -0.065  -0.066  -0.408  0.00  0.00    -0.034 A 
ATOM      5  C4  UNL d   1      -1.428   0.232  -0.428  0.00  0.00     0.162 A 
ATOM      6  C5  UNL d   1      -2.206   0.035   0.709  0.00  0.00     0.062 A 
ATOM      7  F   UNL d   1      -3.515   0.325   0.681  0.00  0.00    -0.097 F 
ATOM      8  F1  UNL d   1      -2.009   0.712  -1.537  0.00  0.00    -0.096 F 
ATOM      9  I   UNL d   1       1.102   0.227  -2.106  0.00  0.00    -0.060 I 
ATOM     10  F2  UNL d   1       1.813  -0.861   0.818  0.00  0.00    -0.096 F 
ATOM     11  F3  UNL d   1       0.281  -1.237   3.019  0.00  0.00    -0.097 F 
ATOM     12  F4  UNL d   1      -2.383  -0.649   2.964  0.00  0.00    -0.092 F 
ENDROOT
TORSDOF 0
ENDMDL
