MODEL 1
REMARK minimizedAffinity -3.53420186
REMARK minimizedRMSD -1
REMARK  0 active torsions:
REMARK  status: ('A' for Active; 'I' for Inactive)
ROOT
ATOM      1  C   UNL d   1      -1.550  -0.421   1.167  0.00  0.00     0.124 A 
ATOM      2  C1  UNL d   1      -1.934   0.308   0.050  0.00  0.00     0.062 A 
ATOM      3  C2  UNL d   1      -1.124   0.332  -1.082  0.00  0.00     0.162 A 
ATOM      4  C3  UNL d   1       0.078  -0.376  -1.102  0.00  0.00    -0.034 A 
ATOM      5  C4  UNL d   1       0.457  -1.106   0.026  0.00  0.00     0.162 A 
ATOM      6  C5  UNL d   1      -0.356  -1.127   1.154  0.00  0.00     0.062 A 
ATOM      7  F   UNL d   1       0.016  -1.832   2.233  0.00  0.00    -0.097 F 
ATOM      8  F1  UNL d   1       1.606  -1.797   0.040  0.00  0.00    -0.096 F 
ATOM      9  I   UNL d   1       1.293  -0.341  -2.792  0.00  0.00    -0.060 I 
ATOM     10  F2  UNL d   1      -1.519   1.045  -2.147  0.00  0.00    -0.096 F 
ATOM     11  F3  UNL d   1      -3.087   0.991   0.060  0.00  0.00    -0.097 F 
ATOM     12  F4  UNL d   1      -2.332  -0.442   2.255  0.00  0.00    -0.092 F 
ENDROOT
TORSDOF 0
ENDMDL
