MODEL 1
REMARK minimizedAffinity -2.73522592
REMARK minimizedRMSD -1
REMARK  0 active torsions:
REMARK  status: ('A' for Active; 'I' for Inactive)
ROOT
ATOM      1  C   UNL d   1      -0.955  -0.083   2.241  0.00  0.00     0.124 A 
ATOM      2  C1  UNL d   1       0.433  -0.079   2.247  0.00  0.00     0.062 A 
ATOM      3  C2  UNL d   1       1.137   0.060   1.055  0.00  0.00     0.162 A 
ATOM      4  C3  UNL d   1       0.455   0.198  -0.154  0.00  0.00    -0.034 A 
ATOM      5  C4  UNL d   1      -0.941   0.192  -0.152  0.00  0.00     0.162 A 
ATOM      6  C5  UNL d   1      -1.640   0.053   1.042  0.00  0.00     0.062 A 
ATOM      7  F   UNL d   1      -2.981   0.050   1.034  0.00  0.00    -0.097 F 
ATOM      8  F1  UNL d   1      -1.628   0.323  -1.297  0.00  0.00    -0.096 F 
ATOM      9  I   UNL d   1       1.506   0.406  -1.939  0.00  0.00    -0.060 I 
ATOM     10  F2  UNL d   1       2.478   0.060   1.091  0.00  0.00    -0.096 F 
ATOM     11  F3  UNL d   1       1.097  -0.211   3.404  0.00  0.00    -0.097 F 
ATOM     12  F4  UNL d   1      -1.631  -0.218   3.389  0.00  0.00    -0.092 F 
ENDROOT
TORSDOF 0
ENDMDL
