MODEL 1
REMARK minimizedAffinity -5.36862087
REMARK minimizedRMSD -1
REMARK  0 active torsions:
REMARK  status: ('A' for Active; 'I' for Inactive)
ROOT
ATOM      1  C   UNL d   1      -2.066  -0.246   2.525  0.00  0.00     0.124 A 
ATOM      2  C1  UNL d   1      -2.804   0.308   1.487  0.00  0.00     0.062 A 
ATOM      3  C2  UNL d   1      -2.250   0.416   0.215  0.00  0.00     0.162 A 
ATOM      4  C3  UNL d   1      -0.951  -0.030  -0.028  0.00  0.00    -0.034 A 
ATOM      5  C4  UNL d   1      -0.215  -0.585   1.021  0.00  0.00     0.162 A 
ATOM      6  C5  UNL d   1      -0.773  -0.691   2.291  0.00  0.00     0.062 A 
ATOM      7  F   UNL d   1      -0.059  -1.226   3.292  0.00  0.00    -0.097 F 
ATOM      8  F1  UNL d   1       1.036  -1.024   0.822  0.00  0.00    -0.096 F 
ATOM      9  I   UNL d   1      -0.120   0.130  -1.929  0.00  0.00    -0.060 I 
ATOM     10  F2  UNL d   1      -2.986   0.955  -0.769  0.00  0.00    -0.096 F 
ATOM     11  F3  UNL d   1      -4.053   0.740   1.711  0.00  0.00    -0.097 F 
ATOM     12  F4  UNL d   1      -2.601  -0.348   3.748  0.00  0.00    -0.092 F 
ENDROOT
TORSDOF 0
ENDMDL
