MODEL 1
REMARK minimizedAffinity -0.664389014
REMARK minimizedRMSD -1
REMARK  0 active torsions:
REMARK  status: ('A' for Active; 'I' for Inactive)
ROOT
ATOM      1  C   UNL d   1      -0.914  -0.163   2.324  0.00  0.00     0.124 A 
ATOM      2  C1  UNL d   1      -1.359  -0.880   1.222  0.00  0.00     0.062 A 
ATOM      3  C2  UNL d   1      -0.766  -0.690  -0.023  0.00  0.00     0.162 A 
ATOM      4  C3  UNL d   1       0.280   0.221  -0.173  0.00  0.00    -0.034 A 
ATOM      5  C4  UNL d   1       0.722   0.939   0.940  0.00  0.00     0.162 A 
ATOM      6  C5  UNL d   1       0.126   0.746   2.182  0.00  0.00     0.062 A 
ATOM      7  F   UNL d   1       0.557   1.439   3.245  0.00  0.00    -0.097 F 
ATOM      8  F1  UNL d   1       1.725   1.823   0.831  0.00  0.00    -0.096 F 
ATOM      9  I   UNL d   1       1.169   0.508  -2.032  0.00  0.00    -0.060 I 
ATOM     10  F2  UNL d   1      -1.216  -1.396  -1.071  0.00  0.00    -0.096 F 
ATOM     11  F3  UNL d   1      -2.363  -1.758   1.356  0.00  0.00    -0.097 F 
ATOM     12  F4  UNL d   1      -1.487  -0.347   3.520  0.00  0.00    -0.092 F 
ENDROOT
TORSDOF 0
ENDMDL
