MODEL 1
REMARK minimizedAffinity -1.55998218
REMARK minimizedRMSD -1
REMARK  0 active torsions:
REMARK  status: ('A' for Active; 'I' for Inactive)
ROOT
ATOM      1  C   UNL d   1       0.981   0.299   0.886  0.00  0.00     0.124 A 
ATOM      2  C1  UNL d   1       0.171  -0.062   1.953  0.00  0.00     0.062 A 
ATOM      3  C2  UNL d   1      -1.207  -0.162   1.784  0.00  0.00     0.162 A 
ATOM      4  C3  UNL d   1      -1.784   0.099   0.541  0.00  0.00    -0.034 A 
ATOM      5  C4  UNL d   1      -0.962   0.462  -0.528  0.00  0.00     0.162 A 
ATOM      6  C5  UNL d   1       0.414   0.561  -0.353  0.00  0.00     0.062 A 
ATOM      7  F   UNL d   1       1.195   0.910  -1.386  0.00  0.00    -0.097 F 
ATOM      8  F1  UNL d   1      -1.484   0.719  -1.737  0.00  0.00    -0.096 F 
ATOM      9  I   UNL d   1      -3.844  -0.050   0.283  0.00  0.00    -0.060 I 
ATOM     10  F2  UNL d   1      -1.966  -0.512   2.833  0.00  0.00    -0.096 F 
ATOM     11  F3  UNL d   1       0.716  -0.314   3.152  0.00  0.00    -0.097 F 
ATOM     12  F4  UNL d   1       2.307   0.396   1.052  0.00  0.00    -0.092 F 
ENDROOT
TORSDOF 0
ENDMDL
