MODEL 1
REMARK minimizedAffinity -4.53640461
REMARK minimizedRMSD -1
REMARK  0 active torsions:
REMARK  status: ('A' for Active; 'I' for Inactive)
ROOT
ATOM      1  C   UNL d   1      -2.036   0.064   2.553  0.00  0.00     0.124 A 
ATOM      2  C1  UNL d   1      -2.727   0.365   1.388  0.00  0.00     0.062 A 
ATOM      3  C2  UNL d   1      -2.052   0.440   0.173  0.00  0.00     0.162 A 
ATOM      4  C3  UNL d   1      -0.677   0.212   0.117  0.00  0.00    -0.034 A 
ATOM      5  C4  UNL d   1       0.011  -0.090   1.294  0.00  0.00     0.162 A 
ATOM      6  C5  UNL d   1      -0.668  -0.164   2.505  0.00  0.00     0.062 A 
ATOM      7  F   UNL d   1       0.001  -0.456   3.630  0.00  0.00    -0.097 F 
ATOM      8  F1  UNL d   1       1.333  -0.316   1.276  0.00  0.00    -0.096 F 
ATOM      9  I   UNL d   1       0.336   0.322  -1.697  0.00  0.00    -0.060 I 
ATOM     10  F2  UNL d   1      -2.745   0.733  -0.937  0.00  0.00    -0.096 F 
ATOM     11  F3  UNL d   1      -4.049   0.586   1.432  0.00  0.00    -0.097 F 
ATOM     12  F4  UNL d   1      -2.689  -0.007   3.721  0.00  0.00    -0.092 F 
ENDROOT
TORSDOF 0
ENDMDL
