MODEL 1
REMARK minimizedAffinity -1.96232939
REMARK minimizedRMSD -1
REMARK  0 active torsions:
REMARK  status: ('A' for Active; 'I' for Inactive)
ROOT
ATOM      1  C   UNL d   1      -1.342  -0.023   1.586  0.00  0.00     0.124 A 
ATOM      2  C1  UNL d   1      -1.928   0.651   0.524  0.00  0.00     0.062 A 
ATOM      3  C2  UNL d   1      -1.285   0.707  -0.710  0.00  0.00     0.162 A 
ATOM      4  C3  UNL d   1      -0.049   0.086  -0.888  0.00  0.00    -0.034 A 
ATOM      5  C4  UNL d   1       0.535  -0.589   0.185  0.00  0.00     0.162 A 
ATOM      6  C5  UNL d   1      -0.111  -0.643   1.416  0.00  0.00     0.062 A 
ATOM      7  F   UNL d   1       0.456  -1.294   2.441  0.00  0.00    -0.097 F 
ATOM      8  F1  UNL d   1       1.722  -1.197   0.048  0.00  0.00    -0.096 F 
ATOM      9  I   UNL d   1       0.915   0.168  -2.731  0.00  0.00    -0.060 I 
ATOM     10  F2  UNL d   1      -1.875   1.366  -1.718  0.00  0.00    -0.096 F 
ATOM     11  F3  UNL d   1      -3.116   1.251   0.686  0.00  0.00    -0.097 F 
ATOM     12  F4  UNL d   1      -1.962  -0.075   2.772  0.00  0.00    -0.092 F 
ENDROOT
TORSDOF 0
ENDMDL
