MODEL 1
REMARK minimizedAffinity 0.188862607
REMARK minimizedRMSD -1
REMARK  0 active torsions:
REMARK  status: ('A' for Active; 'I' for Inactive)
ROOT
ATOM      1  C   UNL d   1      -1.155  -0.450   2.259  0.00  0.00     0.124 A 
ATOM      2  C1  UNL d   1      -1.965  -0.464   1.132  0.00  0.00     0.062 A 
ATOM      3  C2  UNL d   1      -1.484   0.019  -0.081  0.00  0.00     0.162 A 
ATOM      4  C3  UNL d   1      -0.185   0.519  -0.175  0.00  0.00    -0.034 A 
ATOM      5  C4  UNL d   1       0.623   0.531   0.964  0.00  0.00     0.162 A 
ATOM      6  C5  UNL d   1       0.137   0.047   2.174  0.00  0.00     0.062 A 
ATOM      7  F   UNL d   1       0.921   0.061   3.262  0.00  0.00    -0.097 F 
ATOM      8  F1  UNL d   1       1.876   1.005   0.909  0.00  0.00    -0.096 F 
ATOM      9  I   UNL d   1       0.538   1.242  -1.987  0.00  0.00    -0.060 I 
ATOM     10  F2  UNL d   1      -2.289  -0.007  -1.154  0.00  0.00    -0.096 F 
ATOM     11  F3  UNL d   1      -3.215  -0.943   1.212  0.00  0.00    -0.097 F 
ATOM     12  F4  UNL d   1      -1.621  -0.915   3.426  0.00  0.00    -0.092 F 
ENDROOT
TORSDOF 0
ENDMDL
