MODEL 1
REMARK minimizedAffinity 2.33026958
REMARK minimizedRMSD -1
REMARK  0 active torsions:
REMARK  status: ('A' for Active; 'I' for Inactive)
ROOT
ATOM      1  C   UNL d   1       0.364   0.004  -2.214  0.00  0.00     0.124 A 
ATOM      2  C1  UNL d   1      -0.748   0.520  -1.563  0.00  0.00     0.062 A 
ATOM      3  C2  UNL d   1      -0.865   0.407  -0.181  0.00  0.00     0.162 A 
ATOM      4  C3  UNL d   1       0.133  -0.225   0.561  0.00  0.00    -0.034 A 
ATOM      5  C4  UNL d   1       1.248  -0.743  -0.101  0.00  0.00     0.162 A 
ATOM      6  C5  UNL d   1       1.361  -0.627  -1.482  0.00  0.00     0.062 A 
ATOM      7  F   UNL d   1       2.436  -1.126  -2.109  0.00  0.00    -0.097 F 
ATOM      8  F1  UNL d   1       2.226  -1.356   0.582  0.00  0.00    -0.096 F 
ATOM      9  I   UNL d   1      -0.038  -0.397   2.628  0.00  0.00    -0.060 I 
ATOM     10  F2  UNL d   1      -1.950   0.915   0.422  0.00  0.00    -0.096 F 
ATOM     11  F3  UNL d   1      -1.712   1.129  -2.267  0.00  0.00    -0.097 F 
ATOM     12  F4  UNL d   1       0.474   0.113  -3.544  0.00  0.00    -0.092 F 
ENDROOT
TORSDOF 0
ENDMDL
