MODEL 1
REMARK minimizedAffinity -0.74511373
REMARK minimizedRMSD -1
REMARK  0 active torsions:
REMARK  status: ('A' for Active; 'I' for Inactive)
ROOT
ATOM      1  C   UNL d   1       0.608   0.430  -0.708  0.00  0.00     0.124 A 
ATOM      2  C1  UNL d   1      -0.759   0.243  -0.560  0.00  0.00     0.062 A 
ATOM      3  C2  UNL d   1      -1.306   0.053   0.706  0.00  0.00     0.162 A 
ATOM      4  C3  UNL d   1      -0.486   0.051   1.834  0.00  0.00    -0.034 A 
ATOM      5  C4  UNL d   1       0.888   0.240   1.677  0.00  0.00     0.162 A 
ATOM      6  C5  UNL d   1       1.430   0.429   0.410  0.00  0.00     0.062 A 
ATOM      7  F   UNL d   1       2.751   0.610   0.268  0.00  0.00    -0.097 F 
ATOM      8  F1  UNL d   1       1.705   0.244   2.740  0.00  0.00    -0.096 F 
ATOM      9  I   UNL d   1      -1.301  -0.232   3.728  0.00  0.00    -0.060 I 
ATOM     10  F2  UNL d   1      -2.631  -0.126   0.819  0.00  0.00    -0.096 F 
ATOM     11  F3  UNL d   1      -1.555   0.243  -1.639  0.00  0.00    -0.097 F 
ATOM     12  F4  UNL d   1       1.132   0.611  -1.927  0.00  0.00    -0.092 F 
ENDROOT
TORSDOF 0
ENDMDL
