MODEL 1
REMARK minimizedAffinity 4.39786148
REMARK minimizedRMSD -1
REMARK  0 active torsions:
REMARK  status: ('A' for Active; 'I' for Inactive)
ROOT
ATOM      1  O1  BZF d   1       0.497   4.173  -0.558  0.00  0.00    -0.204 OA
ATOM      2  C2  BZF d   1      -0.038   3.522  -1.653  0.00  0.00     0.174 A 
ATOM      3  C3  BZF d   1      -0.648   2.379  -1.279  0.00  0.00    -0.012 A 
ATOM      4  C3A BZF d   1      -0.564   2.358   0.149  0.00  0.00    -0.107 A 
ATOM      5  C4  BZF d   1      -1.003   1.483   1.102  0.00  0.00     0.055 A 
ATOM      6  C5  BZF d   1      -0.694   1.717   2.404  0.00  0.00    -0.016 A 
ATOM      7  C6  BZF d   1       0.054   2.810   2.789  0.00  0.00     0.022 A 
ATOM      8  C7  BZF d   1       0.507   3.708   1.880  0.00  0.00     0.029 A 
ATOM      9  C7A BZF d   1       0.169   3.492   0.566  0.00  0.00     0.058 A 
ENDROOT
TORSDOF 0
ENDMDL
