MODEL 1
REMARK minimizedAffinity 6.07444859
REMARK minimizedRMSD -1
REMARK  0 active torsions:
REMARK  status: ('A' for Active; 'I' for Inactive)
ROOT
ATOM      1  O1  BZF d   1      -0.483   3.825  -3.776  0.00  0.00    -0.204 OA
ATOM      2  C2  BZF d   1      -1.756   3.293  -3.850  0.00  0.00     0.174 A 
ATOM      3  C3  BZF d   1      -2.191   2.922  -2.629  0.00  0.00    -0.012 A 
ATOM      4  C3A BZF d   1      -1.160   3.326  -1.723  0.00  0.00    -0.107 A 
ATOM      5  C4  BZF d   1      -1.016   3.245  -0.368  0.00  0.00     0.055 A 
ATOM      6  C5  BZF d   1       0.144   3.667   0.200  0.00  0.00    -0.016 A 
ATOM      7  C6  BZF d   1       1.182   4.170  -0.557  0.00  0.00     0.022 A 
ATOM      8  C7  BZF d   1       1.084   4.275  -1.905  0.00  0.00     0.029 A 
ATOM      9  C7A BZF d   1      -0.100   3.880  -2.478  0.00  0.00     0.058 A 
ENDROOT
TORSDOF 0
ENDMDL
