MODEL 1
REMARK minimizedAffinity 2.09240103
REMARK minimizedRMSD -1
REMARK  0 active torsions:
REMARK  status: ('A' for Active; 'I' for Inactive)
ROOT
ATOM      1  O1  BZF d   1      -1.501   1.598  -1.720  0.00  0.00    -0.204 OA
ATOM      2  C2  BZF d   1      -1.572   2.261  -2.930  0.00  0.00     0.174 A 
ATOM      3  C3  BZF d   1      -0.997   3.477  -2.843  0.00  0.00    -0.012 A 
ATOM      4  C3A BZF d   1      -0.455   3.544  -1.521  0.00  0.00    -0.107 A 
ATOM      5  C4  BZF d   1       0.250   4.497  -0.842  0.00  0.00     0.055 A 
ATOM      6  C5  BZF d   1       0.566   4.280   0.462  0.00  0.00    -0.016 A 
ATOM      7  C6  BZF d   1       0.189   3.127   1.119  0.00  0.00     0.022 A 
ATOM      8  C7  BZF d   1      -0.506   2.151   0.485  0.00  0.00     0.029 A 
ATOM      9  C7A BZF d   1      -0.798   2.352  -0.842  0.00  0.00     0.058 A 
ENDROOT
TORSDOF 0
ENDMDL
