MODEL 1
REMARK minimizedAffinity 6.91817331
REMARK minimizedRMSD -1
REMARK  0 active torsions:
REMARK  status: ('A' for Active; 'I' for Inactive)
ROOT
ATOM      1  O1  BZF d   1      -0.193   2.743  -2.654  0.00  0.00    -0.204 OA
ATOM      2  C2  BZF d   1      -1.242   3.289  -3.367  0.00  0.00     0.174 A 
ATOM      3  C3  BZF d   1      -1.818   4.295  -2.678  0.00  0.00    -0.012 A 
ATOM      4  C3A BZF d   1      -1.023   4.445  -1.497  0.00  0.00    -0.107 A 
ATOM      5  C4  BZF d   1      -1.082   5.291  -0.427  0.00  0.00     0.055 A 
ATOM      6  C5  BZF d   1      -0.200   5.127   0.593  0.00  0.00    -0.016 A 
ATOM      7  C6  BZF d   1       0.748   4.126   0.580  0.00  0.00     0.022 A 
ATOM      8  C7  BZF d   1       0.849   3.265  -0.462  0.00  0.00     0.029 A 
ATOM      9  C7A BZF d   1      -0.020   3.448  -1.510  0.00  0.00     0.058 A 
ENDROOT
TORSDOF 0
ENDMDL
