MODEL 1
REMARK minimizedAffinity 18.2753601
REMARK minimizedRMSD -1
REMARK  0 active torsions:
REMARK  status: ('A' for Active; 'I' for Inactive)
ROOT
ATOM      1  O1  BZF d   1       0.468   3.115  -3.099  0.00  0.00    -0.204 OA
ATOM      2  C2  BZF d   1      -0.732   2.948  -3.763  0.00  0.00     0.174 A 
ATOM      3  C3  BZF d   1      -1.693   2.526  -2.915  0.00  0.00    -0.012 A 
ATOM      4  C3A BZF d   1      -1.076   2.513  -1.624  0.00  0.00    -0.107 A 
ATOM      5  C4  BZF d   1      -1.524   2.199  -0.373  0.00  0.00     0.055 A 
ATOM      6  C5  BZF d   1      -0.648   2.219   0.666  0.00  0.00    -0.016 A 
ATOM      7  C6  BZF d   1       0.681   2.541   0.490  0.00  0.00     0.022 A 
ATOM      8  C7  BZF d   1       1.171   2.864  -0.732  0.00  0.00     0.029 A 
ATOM      9  C7A BZF d   1       0.282   2.878  -1.779  0.00  0.00     0.058 A 
ENDROOT
TORSDOF 0
ENDMDL
