MODEL 1
REMARK minimizedAffinity 11.8739557
REMARK minimizedRMSD -1
REMARK  0 active torsions:
REMARK  status: ('A' for Active; 'I' for Inactive)
ROOT
ATOM      1  O1  BZF d   1      -0.056   4.746  -2.945  0.00  0.00    -0.204 OA
ATOM      2  C2  BZF d   1      -0.880   3.821  -3.557  0.00  0.00     0.174 A 
ATOM      3  C3  BZF d   1      -1.110   2.771  -2.741  0.00  0.00    -0.012 A 
ATOM      4  C3A BZF d   1      -0.460   3.102  -1.510  0.00  0.00    -0.107 A 
ATOM      5  C4  BZF d   1      -0.344   2.464  -0.309  0.00  0.00     0.055 A 
ATOM      6  C5  BZF d   1       0.421   3.023   0.666  0.00  0.00    -0.016 A 
ATOM      7  C6  BZF d   1       1.086   4.216   0.471  0.00  0.00     0.022 A 
ATOM      8  C7  BZF d   1       0.997   4.889  -0.702  0.00  0.00     0.029 A 
ATOM      9  C7A BZF d   1       0.199   4.342  -1.677  0.00  0.00     0.058 A 
ENDROOT
TORSDOF 0
ENDMDL
