MODEL 1
REMARK minimizedAffinity 12.4261742
REMARK minimizedRMSD -1
REMARK  0 active torsions:
REMARK  status: ('A' for Active; 'I' for Inactive)
ROOT
ATOM      1  O1  BZF d   1      -4.946  -5.621   4.211  0.00  0.00    -0.204 OA
ATOM      2  C2  BZF d   1      -5.971  -5.780   5.123  0.00  0.00     0.174 A 
ATOM      3  C3  BZF d   1      -5.996  -4.754   5.997  0.00  0.00    -0.012 A 
ATOM      4  C3A BZF d   1      -4.978  -3.853   5.551  0.00  0.00    -0.107 A 
ATOM      5  C4  BZF d   1      -4.531  -2.644   6.000  0.00  0.00     0.055 A 
ATOM      6  C5  BZF d   1      -3.470  -2.060   5.382  0.00  0.00    -0.016 A 
ATOM      7  C6  BZF d   1      -2.830  -2.660   4.317  0.00  0.00     0.022 A 
ATOM      8  C7  BZF d   1      -3.240  -3.858   3.833  0.00  0.00     0.029 A 
ATOM      9  C7A BZF d   1      -4.333  -4.434   4.434  0.00  0.00     0.058 A 
ENDROOT
TORSDOF 0
ENDMDL
