MODEL 1
REMARK minimizedAffinity 10.0754318
REMARK minimizedRMSD -1
REMARK  0 active torsions:
REMARK  status: ('A' for Active; 'I' for Inactive)
ROOT
ATOM      1  O1  BZF d   1      -0.219   5.241   0.290  0.00  0.00    -0.204 OA
ATOM      2  C2  BZF d   1       0.376   4.095   0.780  0.00  0.00     0.174 A 
ATOM      3  C3  BZF d   1       0.346   3.109  -0.140  0.00  0.00    -0.012 A 
ATOM      4  C3A BZF d   1      -0.228   3.702  -1.309  0.00  0.00    -0.107 A 
ATOM      5  C4  BZF d   1      -0.506   3.232  -2.560  0.00  0.00     0.055 A 
ATOM      6  C5  BZF d   1      -1.134   4.047  -3.448  0.00  0.00    -0.016 A 
ATOM      7  C6  BZF d   1      -1.503   5.334  -3.116  0.00  0.00     0.022 A 
ATOM      8  C7  BZF d   1      -1.244   5.847  -1.889  0.00  0.00     0.029 A 
ATOM      9  C7A BZF d   1      -0.579   5.037  -1.000  0.00  0.00     0.058 A 
ENDROOT
TORSDOF 0
ENDMDL
