MODEL 1
REMARK minimizedAffinity 9.03436852
REMARK minimizedRMSD -1
REMARK  0 active torsions:
REMARK  status: ('A' for Active; 'I' for Inactive)
ROOT
ATOM      1  O1  BZF d   1      -0.412   2.287   0.373  0.00  0.00    -0.204 OA
ATOM      2  C2  BZF d   1       0.363   3.413   0.169  0.00  0.00     0.174 A 
ATOM      3  C3  BZF d   1       0.155   3.921  -1.062  0.00  0.00    -0.012 A 
ATOM      4  C3A BZF d   1      -0.878   3.113  -1.633  0.00  0.00    -0.107 A 
ATOM      5  C4  BZF d   1      -1.530   3.132  -2.833  0.00  0.00     0.055 A 
ATOM      6  C5  BZF d   1      -2.437   2.158  -3.108  0.00  0.00    -0.016 A 
ATOM      7  C6  BZF d   1      -2.713   1.149  -2.209  0.00  0.00     0.022 A 
ATOM      8  C7  BZF d   1      -2.096   1.091  -1.003  0.00  0.00     0.029 A 
ATOM      9  C7A BZF d   1      -1.203   2.092  -0.710  0.00  0.00     0.058 A 
ENDROOT
TORSDOF 0
ENDMDL
