MODEL 1
REMARK minimizedAffinity 11.7557831
REMARK minimizedRMSD -1
REMARK  0 active torsions:
REMARK  status: ('A' for Active; 'I' for Inactive)
ROOT
ATOM      1  O1  BZF d   1       0.047   4.115  -3.746  0.00  0.00    -0.204 OA
ATOM      2  C2  BZF d   1      -1.244   3.747  -4.072  0.00  0.00     0.174 A 
ATOM      3  C3  BZF d   1      -1.924   3.362  -2.973  0.00  0.00    -0.012 A 
ATOM      4  C3A BZF d   1      -1.029   3.585  -1.879  0.00  0.00    -0.107 A 
ATOM      5  C4  BZF d   1      -1.134   3.410  -0.529  0.00  0.00     0.055 A 
ATOM      6  C5  BZF d   1      -0.051   3.655   0.255  0.00  0.00    -0.016 A 
ATOM      7  C6  BZF d   1       1.152   4.070  -0.277  0.00  0.00     0.022 A 
ATOM      8  C7  BZF d   1       1.303   4.263  -1.610  0.00  0.00     0.029 A 
ATOM      9  C7A BZF d   1       0.201   4.048  -2.402  0.00  0.00     0.058 A 
ENDROOT
TORSDOF 0
ENDMDL
