MODEL 1
REMARK minimizedAffinity 11.2734642
REMARK minimizedRMSD -1
REMARK  0 active torsions:
REMARK  status: ('A' for Active; 'I' for Inactive)
ROOT
ATOM      1  O1  BZF d   1      -1.697   3.210   1.486  0.00  0.00    -0.204 OA
ATOM      2  C2  BZF d   1      -1.312   1.898   1.289  0.00  0.00     0.174 A 
ATOM      3  C3  BZF d   1      -0.443   1.803   0.262  0.00  0.00    -0.012 A 
ATOM      4  C3A BZF d   1      -0.203   3.150  -0.154  0.00  0.00    -0.107 A 
ATOM      5  C4  BZF d   1       0.583   3.709  -1.121  0.00  0.00     0.055 A 
ATOM      6  C5  BZF d   1       0.535   5.053  -1.317  0.00  0.00    -0.016 A 
ATOM      7  C6  BZF d   1      -0.290   5.866  -0.568  0.00  0.00     0.022 A 
ATOM      8  C7  BZF d   1      -1.083   5.359   0.407  0.00  0.00     0.029 A 
ATOM      9  C7A BZF d   1      -1.013   4.006   0.629  0.00  0.00     0.058 A 
ENDROOT
TORSDOF 0
ENDMDL
