MODEL 1
REMARK minimizedAffinity 6.78664255
REMARK minimizedRMSD -1
REMARK  0 active torsions:
REMARK  status: ('A' for Active; 'I' for Inactive)
ROOT
ATOM      1  O1  BZF d   1      -2.776   0.589   3.119  0.00  0.00    -0.204 OA
ATOM      2  C2  BZF d   1      -1.874   1.497   2.599  0.00  0.00     0.174 A 
ATOM      3  C3  BZF d   1      -0.616   1.017   2.671  0.00  0.00    -0.012 A 
ATOM      4  C3A BZF d   1      -0.749  -0.310   3.189  0.00  0.00    -0.107 A 
ATOM      5  C4  BZF d   1       0.147  -1.301   3.472  0.00  0.00     0.055 A 
ATOM      6  C5  BZF d   1      -0.300  -2.454   4.036  0.00  0.00    -0.016 A 
ATOM      7  C6  BZF d   1      -1.633  -2.646   4.336  0.00  0.00     0.022 A 
ATOM      8  C7  BZF d   1      -2.559  -1.694   4.069  0.00  0.00     0.029 A 
ATOM      9  C7A BZF d   1      -2.116  -0.541   3.468  0.00  0.00     0.058 A 
ENDROOT
TORSDOF 0
ENDMDL
