MODEL 1
REMARK minimizedAffinity 2.75843382
REMARK minimizedRMSD -1
REMARK  0 active torsions:
REMARK  status: ('A' for Active; 'I' for Inactive)
ROOT
ATOM      1  O1  BZF d   1      -1.446   1.319  -0.657  0.00  0.00    -0.204 OA
ATOM      2  C2  BZF d   1      -1.927   1.237  -1.949  0.00  0.00     0.174 A 
ATOM      3  C3  BZF d   1      -1.530   2.301  -2.676  0.00  0.00    -0.012 A 
ATOM      4  C3A BZF d   1      -0.676   3.052  -1.808  0.00  0.00    -0.107 A 
ATOM      5  C4  BZF d   1       0.038   4.206  -1.960  0.00  0.00     0.055 A 
ATOM      6  C5  BZF d   1       0.712   4.712  -0.895  0.00  0.00    -0.016 A 
ATOM      7  C6  BZF d   1       0.691   4.093   0.338  0.00  0.00     0.022 A 
ATOM      8  C7  BZF d   1       0.002   2.943   0.537  0.00  0.00     0.029 A 
ATOM      9  C7A BZF d   1      -0.654   2.412  -0.547  0.00  0.00     0.058 A 
ENDROOT
TORSDOF 0
ENDMDL
