MODEL 1
REMARK minimizedAffinity 1.25857484
REMARK minimizedRMSD -1
REMARK  0 active torsions:
REMARK  status: ('A' for Active; 'I' for Inactive)
ROOT
ATOM      1  O1  BZF d   1       0.259   2.492  -0.118  0.00  0.00    -0.204 OA
ATOM      2  C2  BZF d   1       0.508   3.784   0.302  0.00  0.00     0.174 A 
ATOM      3  C3  BZF d   1       0.086   3.964   1.571  0.00  0.00    -0.012 A 
ATOM      4  C3A BZF d   1      -0.377   2.680   1.999  0.00  0.00    -0.107 A 
ATOM      5  C4  BZF d   1      -0.901   2.214   3.171  0.00  0.00     0.055 A 
ATOM      6  C5  BZF d   1      -1.321   0.923   3.239  0.00  0.00    -0.016 A 
ATOM      7  C6  BZF d   1      -1.236   0.074   2.156  0.00  0.00     0.022 A 
ATOM      8  C7  BZF d   1      -0.719   0.489   0.974  0.00  0.00     0.029 A 
ATOM      9  C7A BZF d   1      -0.263   1.784   0.911  0.00  0.00     0.058 A 
ENDROOT
TORSDOF 0
ENDMDL
