MODEL 1
REMARK minimizedAffinity -0.5260185
REMARK minimizedRMSD -1
REMARK  0 active torsions:
REMARK  status: ('A' for Active; 'I' for Inactive)
ROOT
ATOM      1  O1  BZF d   1      -2.529  -5.031   5.988  0.00  0.00    -0.204 OA
ATOM      2  C2  BZF d   1      -1.326  -4.355   5.926  0.00  0.00     0.174 A 
ATOM      3  C3  BZF d   1      -1.528  -3.027   5.817  0.00  0.00    -0.012 A 
ATOM      4  C3A BZF d   1      -2.946  -2.854   5.903  0.00  0.00    -0.107 A 
ATOM      5  C4  BZF d   1      -3.762  -1.759   5.875  0.00  0.00     0.055 A 
ATOM      6  C5  BZF d   1      -5.108  -1.937   5.908  0.00  0.00    -0.016 A 
ATOM      7  C6  BZF d   1      -5.673  -3.195   5.965  0.00  0.00     0.022 A 
ATOM      8  C7  BZF d   1      -4.904  -4.311   6.000  0.00  0.00     0.029 A 
ATOM      9  C7A BZF d   1      -3.543  -4.132   5.999  0.00  0.00     0.058 A 
ENDROOT
TORSDOF 0
ENDMDL
