MODEL 1
REMARK minimizedAffinity 7.69067812
REMARK minimizedRMSD -1
REMARK  0 active torsions:
REMARK  status: ('A' for Active; 'I' for Inactive)
ROOT
ATOM      1  O1  BZF d   1       1.178   2.952   2.948  0.00  0.00    -0.204 OA
ATOM      2  C2  BZF d   1       0.528   1.778   2.621  0.00  0.00     0.174 A 
ATOM      3  C3  BZF d   1      -0.338   1.976   1.606  0.00  0.00    -0.012 A 
ATOM      4  C3A BZF d   1      -0.155   3.341   1.217  0.00  0.00    -0.107 A 
ATOM      5  C4  BZF d   1      -0.719   4.126   0.252  0.00  0.00     0.055 A 
ATOM      6  C5  BZF d   1      -0.373   5.438   0.183  0.00  0.00    -0.016 A 
ATOM      7  C6  BZF d   1       0.529   5.999   1.063  0.00  0.00     0.022 A 
ATOM      8  C7  BZF d   1       1.118   5.259   2.034  0.00  0.00     0.029 A 
ATOM      9  C7A BZF d   1       0.795   3.925   2.086  0.00  0.00     0.058 A 
ENDROOT
TORSDOF 0
ENDMDL
