MODEL 1
REMARK minimizedAffinity 20.3625393
REMARK minimizedRMSD -1
REMARK  0 active torsions:
REMARK  status: ('A' for Active; 'I' for Inactive)
ROOT
ATOM      1  C   UNL d   1       2.646   2.648  -2.515  0.00  0.00     0.124 A 
ATOM      2  C1  UNL d   1       3.867   3.205  -2.869  0.00  0.00     0.062 A 
ATOM      3  C2  UNL d   1       4.825   3.468  -1.894  0.00  0.00     0.162 A 
ATOM      4  C3  UNL d   1       4.567   3.172  -0.555  0.00  0.00    -0.034 A 
ATOM      5  C4  UNL d   1       3.336   2.613  -0.207  0.00  0.00     0.162 A 
ATOM      6  C5  UNL d   1       2.382   2.352  -1.185  0.00  0.00     0.062 A 
ATOM      7  F   UNL d   1       1.203   1.814  -0.842  0.00  0.00    -0.097 F 
ATOM      8  F1  UNL d   1       3.055   2.316   1.070  0.00  0.00    -0.096 F 
ATOM      9  I   UNL d   1       5.997   3.563   0.905  0.00  0.00    -0.060 I 
ATOM     10  F2  UNL d   1       5.997   4.006  -2.264  0.00  0.00    -0.096 F 
ATOM     11  F3  UNL d   1       4.125   3.493  -4.153  0.00  0.00    -0.097 F 
ATOM     12  F4  UNL d   1       1.726   2.398  -3.455  0.00  0.00    -0.092 F 
ENDROOT
TORSDOF 0
ENDMDL
