MODEL 1
REMARK minimizedAffinity 27.2714443
REMARK minimizedRMSD -1
REMARK  0 active torsions:
REMARK  status: ('A' for Active; 'I' for Inactive)
ROOT
ATOM      1  C   UNL d   1       2.115   3.705  -3.331  0.00  0.00     0.124 A 
ATOM      2  C1  UNL d   1       2.865   4.853  -3.118  0.00  0.00     0.062 A 
ATOM      3  C2  UNL d   1       3.974   4.818  -2.278  0.00  0.00     0.162 A 
ATOM      4  C3  UNL d   1       4.341   3.630  -1.646  0.00  0.00    -0.034 A 
ATOM      5  C4  UNL d   1       3.581   2.480  -1.864  0.00  0.00     0.162 A 
ATOM      6  C5  UNL d   1       2.473   2.520  -2.705  0.00  0.00     0.062 A 
ATOM      7  F   UNL d   1       1.749   1.410  -2.909  0.00  0.00    -0.097 F 
ATOM      8  F1  UNL d   1       3.905   1.321  -1.272  0.00  0.00    -0.096 F 
ATOM      9  I   UNL d   1       5.999   3.574  -0.389  0.00  0.00    -0.060 I 
ATOM     10  F2  UNL d   1       4.681   5.942  -2.091  0.00  0.00    -0.096 F 
ATOM     11  F3  UNL d   1       2.520   6.000  -3.722  0.00  0.00    -0.097 F 
ATOM     12  F4  UNL d   1       1.047   3.742  -4.139  0.00  0.00    -0.092 F 
ENDROOT
TORSDOF 0
ENDMDL
