MODEL 1
REMARK minimizedAffinity 24.5875931
REMARK minimizedRMSD -1
REMARK  0 active torsions:
REMARK  status: ('A' for Active; 'I' for Inactive)
ROOT
ATOM      1  C   UNL d   1      -4.874   0.010   4.506  0.00  0.00     0.124 A 
ATOM      2  C1  UNL d   1      -3.751   0.725   4.897  0.00  0.00     0.062 A 
ATOM      3  C2  UNL d   1      -2.580   0.654   4.149  0.00  0.00     0.162 A 
ATOM      4  C3  UNL d   1      -2.525  -0.136   3.000  0.00  0.00    -0.034 A 
ATOM      5  C4  UNL d   1      -3.658  -0.853   2.613  0.00  0.00     0.162 A 
ATOM      6  C5  UNL d   1      -4.827  -0.779   3.364  0.00  0.00     0.062 A 
ATOM      7  F   UNL d   1      -5.911  -1.471   2.984  0.00  0.00    -0.097 F 
ATOM      8  F1  UNL d   1      -3.641  -1.622   1.514  0.00  0.00    -0.096 F 
ATOM      9  I   UNL d   1      -0.775  -0.245   1.879  0.00  0.00    -0.060 I 
ATOM     10  F2  UNL d   1      -1.510   1.356   4.551  0.00  0.00    -0.096 F 
ATOM     11  F3  UNL d   1      -3.794   1.487   6.000  0.00  0.00    -0.097 F 
ATOM     12  F4  UNL d   1      -6.000   0.079   5.228  0.00  0.00    -0.092 F 
ENDROOT
TORSDOF 0
ENDMDL
