MODEL 1
REMARK minimizedAffinity 8.7304678
REMARK minimizedRMSD -1
REMARK  0 active torsions:
REMARK  status: ('A' for Active; 'I' for Inactive)
ROOT
ATOM      1  C   UNL d   1      -3.945   0.592   4.818  0.00  0.00     0.124 A 
ATOM      2  C1  UNL d   1      -4.749  -0.290   4.109  0.00  0.00     0.062 A 
ATOM      3  C2  UNL d   1      -4.262  -0.918   2.966  0.00  0.00     0.162 A 
ATOM      4  C3  UNL d   1      -2.962  -0.667   2.526  0.00  0.00    -0.034 A 
ATOM      5  C4  UNL d   1      -2.159   0.221   3.244  0.00  0.00     0.162 A 
ATOM      6  C5  UNL d   1      -2.651   0.846   4.385  0.00  0.00     0.062 A 
ATOM      7  F   UNL d   1      -1.873   1.697   5.069  0.00  0.00    -0.097 F 
ATOM      8  F1  UNL d   1      -0.905   0.484   2.849  0.00  0.00    -0.096 F 
ATOM      9  I   UNL d   1      -2.229  -1.605   0.818  0.00  0.00    -0.060 I 
ATOM     10  F2  UNL d   1      -5.061  -1.764   2.301  0.00  0.00    -0.096 F 
ATOM     11  F3  UNL d   1      -6.000  -0.536   4.524  0.00  0.00    -0.097 F 
ATOM     12  F4  UNL d   1      -4.417   1.195   5.916  0.00  0.00    -0.092 F 
ENDROOT
TORSDOF 0
ENDMDL
