MODEL 1
REMARK minimizedAffinity 17.8848782
REMARK minimizedRMSD -1
REMARK  0 active torsions:
REMARK  status: ('A' for Active; 'I' for Inactive)
ROOT
ATOM      1  C   UNL d   1       3.689   1.878  -0.144  0.00  0.00     0.124 A 
ATOM      2  C1  UNL d   1       3.500   2.278  -1.460  0.00  0.00     0.062 A 
ATOM      3  C2  UNL d   1       4.152   3.407  -1.949  0.00  0.00     0.162 A 
ATOM      4  C3  UNL d   1       5.000   4.143  -1.122  0.00  0.00    -0.034 A 
ATOM      5  C4  UNL d   1       5.185   3.734   0.200  0.00  0.00     0.162 A 
ATOM      6  C5  UNL d   1       4.531   2.606   0.684  0.00  0.00     0.062 A 
ATOM      7  F   UNL d   1       4.716   2.221   1.955  0.00  0.00    -0.097 F 
ATOM      8  F1  UNL d   1       5.994   4.419   1.022  0.00  0.00    -0.096 F 
ATOM      9  I   UNL d   1       5.977   5.831  -1.849  0.00  0.00    -0.060 I 
ATOM     10  F2  UNL d   1       3.950   3.770  -3.224  0.00  0.00    -0.096 F 
ATOM     11  F3  UNL d   1       2.686   1.577  -2.262  0.00  0.00    -0.097 F 
ATOM     12  F4  UNL d   1       3.060   0.792   0.324  0.00  0.00    -0.092 F 
ENDROOT
TORSDOF 0
ENDMDL
