MODEL 1
REMARK minimizedAffinity 18.6774445
REMARK minimizedRMSD -1
REMARK  0 active torsions:
REMARK  status: ('A' for Active; 'I' for Inactive)
ROOT
ATOM      1  C   UNL d   1       3.146  -0.586   1.008  0.00  0.00     0.124 A 
ATOM      2  C1  UNL d   1       3.989  -0.799  -0.074  0.00  0.00     0.062 A 
ATOM      3  C2  UNL d   1       4.208  -2.089  -0.548  0.00  0.00     0.162 A 
ATOM      4  C3  UNL d   1       3.581  -3.177   0.060  0.00  0.00    -0.034 A 
ATOM      5  C4  UNL d   1       2.736  -2.955   1.148  0.00  0.00     0.162 A 
ATOM      6  C5  UNL d   1       2.521  -1.664   1.618  0.00  0.00     0.062 A 
ATOM      7  F   UNL d   1       1.706  -1.460   2.664  0.00  0.00    -0.097 F 
ATOM      8  F1  UNL d   1       2.117  -3.979   1.756  0.00  0.00    -0.096 F 
ATOM      9  I   UNL d   1       3.905  -5.108  -0.646  0.00  0.00    -0.060 I 
ATOM     10  F2  UNL d   1       5.027  -2.265  -1.595  0.00  0.00    -0.096 F 
ATOM     11  F3  UNL d   1       4.596   0.241  -0.664  0.00  0.00    -0.097 F 
ATOM     12  F4  UNL d   1       2.939   0.657   1.463  0.00  0.00    -0.092 F 
ENDROOT
TORSDOF 0
ENDMDL
