MODEL 1
REMARK minimizedAffinity 19.9102402
REMARK minimizedRMSD -1
REMARK  0 active torsions:
REMARK  status: ('A' for Active; 'I' for Inactive)
ROOT
ATOM      1  C   UNL d   1      -3.024  -0.083   2.387  0.00  0.00     0.124 A 
ATOM      2  C1  UNL d   1      -4.305   0.449   2.338  0.00  0.00     0.062 A 
ATOM      3  C2  UNL d   1      -4.751   1.294   3.350  0.00  0.00     0.162 A 
ATOM      4  C3  UNL d   1      -3.915   1.612   4.421  0.00  0.00    -0.034 A 
ATOM      5  C4  UNL d   1      -2.629   1.072   4.463  0.00  0.00     0.162 A 
ATOM      6  C5  UNL d   1      -2.187   0.228   3.449  0.00  0.00     0.062 A 
ATOM      7  F   UNL d   1      -0.950  -0.285   3.498  0.00  0.00    -0.097 F 
ATOM      8  F1  UNL d   1      -1.799   1.357   5.478  0.00  0.00    -0.096 F 
ATOM      9  I   UNL d   1      -4.578   2.874   5.937  0.00  0.00    -0.060 I 
ATOM     10  F2  UNL d   1      -5.994   1.794   3.277  0.00  0.00    -0.096 F 
ATOM     11  F3  UNL d   1      -5.116   0.149   1.313  0.00  0.00    -0.097 F 
ATOM     12  F4  UNL d   1      -2.598  -0.896   1.411  0.00  0.00    -0.092 F 
ENDROOT
TORSDOF 0
ENDMDL
