MODEL 1
REMARK minimizedAffinity 12.2154093
REMARK minimizedRMSD -1
REMARK  0 active torsions:
REMARK  status: ('A' for Active; 'I' for Inactive)
ROOT
ATOM      1  C   UNL d   1       4.522  -4.463  -1.259  0.00  0.00     0.124 A 
ATOM      2  C1  UNL d   1       3.258  -3.939  -1.026  0.00  0.00     0.062 A 
ATOM      3  C2  UNL d   1       2.248  -4.103  -1.970  0.00  0.00     0.162 A 
ATOM      4  C3  UNL d   1       2.498  -4.796  -3.155  0.00  0.00    -0.034 A 
ATOM      5  C4  UNL d   1       3.772  -5.319  -3.382  0.00  0.00     0.162 A 
ATOM      6  C5  UNL d   1       4.778  -5.152  -2.436  0.00  0.00     0.062 A 
ATOM      7  F   UNL d   1       5.999  -5.659  -2.663  0.00  0.00    -0.097 F 
ATOM      8  F1  UNL d   1       4.046  -5.990  -4.511  0.00  0.00    -0.096 F 
ATOM      9  I   UNL d   1       0.990  -5.043  -4.568  0.00  0.00    -0.060 I 
ATOM     10  F2  UNL d   1       1.036  -3.587  -1.719  0.00  0.00    -0.096 F 
ATOM     11  F3  UNL d   1       3.009  -3.273   0.110  0.00  0.00    -0.097 F 
ATOM     12  F4  UNL d   1       5.493  -4.303  -0.350  0.00  0.00    -0.092 F 
ENDROOT
TORSDOF 0
ENDMDL
