MODEL 1
REMARK minimizedAffinity 27.2728653
REMARK minimizedRMSD -1
REMARK  0 active torsions:
REMARK  status: ('A' for Active; 'I' for Inactive)
ROOT
ATOM      1  C   UNL d   1       3.447   3.588  -2.079  0.00  0.00     0.124 A 
ATOM      2  C1  UNL d   1       2.768   2.413  -2.369  0.00  0.00     0.062 A 
ATOM      3  C2  UNL d   1       1.392   2.433  -2.578  0.00  0.00     0.162 A 
ATOM      4  C3  UNL d   1       0.685   3.633  -2.499  0.00  0.00    -0.034 A 
ATOM      5  C4  UNL d   1       1.375   4.810  -2.206  0.00  0.00     0.162 A 
ATOM      6  C5  UNL d   1       2.750   4.785  -1.997  0.00  0.00     0.062 A 
ATOM      7  F   UNL d   1       3.404   5.922  -1.717  0.00  0.00    -0.097 F 
ATOM      8  F1  UNL d   1       0.726   5.981  -2.122  0.00  0.00    -0.096 F 
ATOM      9  I   UNL d   1      -1.372   3.666  -2.812  0.00  0.00    -0.060 I 
ATOM     10  F2  UNL d   1       0.762   1.282  -2.858  0.00  0.00    -0.096 F 
ATOM     11  F3  UNL d   1       3.439   1.255  -2.447  0.00  0.00    -0.097 F 
ATOM     12  F4  UNL d   1       4.770   3.566  -1.877  0.00  0.00    -0.092 F 
ENDROOT
TORSDOF 0
ENDMDL
