MODEL 1
REMARK minimizedAffinity 37.8093491
REMARK minimizedRMSD -1
REMARK  0 active torsions:
REMARK  status: ('A' for Active; 'I' for Inactive)
ROOT
ATOM      1  C   UNL d   1       1.403   3.253  -2.516  0.00  0.00     0.124 A 
ATOM      2  C1  UNL d   1       0.859   3.413  -1.250  0.00  0.00     0.062 A 
ATOM      3  C2  UNL d   1       1.212   2.544  -0.221  0.00  0.00     0.162 A 
ATOM      4  C3  UNL d   1       2.116   1.508  -0.454  0.00  0.00    -0.034 A 
ATOM      5  C4  UNL d   1       2.659   1.353  -1.731  0.00  0.00     0.162 A 
ATOM      6  C5  UNL d   1       2.303   2.224  -2.756  0.00  0.00     0.062 A 
ATOM      7  F   UNL d   1       2.830   2.068  -3.979  0.00  0.00    -0.097 F 
ATOM      8  F1  UNL d   1       3.531   0.367  -1.990  0.00  0.00    -0.096 F 
ATOM      9  I   UNL d   1       2.647   0.207   1.081  0.00  0.00    -0.060 I 
ATOM     10  F2  UNL d   1       0.670   2.722   0.993  0.00  0.00    -0.096 F 
ATOM     11  F3  UNL d   1      -0.011   4.406  -1.016  0.00  0.00    -0.097 F 
ATOM     12  F4  UNL d   1       1.061   4.090  -3.504  0.00  0.00    -0.092 F 
ENDROOT
TORSDOF 0
ENDMDL
