MODEL 1
REMARK minimizedAffinity 31.4546795
REMARK minimizedRMSD -1
REMARK  0 active torsions:
REMARK  status: ('A' for Active; 'I' for Inactive)
ROOT
ATOM      1  C   UNL d   1       0.209  -1.042   3.512  0.00  0.00     0.124 A 
ATOM      2  C1  UNL d   1      -0.203  -1.611   2.315  0.00  0.00     0.062 A 
ATOM      3  C2  UNL d   1      -1.366  -1.167   1.693  0.00  0.00     0.162 A 
ATOM      4  C3  UNL d   1      -2.126  -0.147   2.267  0.00  0.00    -0.034 A 
ATOM      5  C4  UNL d   1      -1.706   0.419   3.472  0.00  0.00     0.162 A 
ATOM      6  C5  UNL d   1      -0.542  -0.028   4.090  0.00  0.00     0.062 A 
ATOM      7  F   UNL d   1      -0.146   0.522   5.246  0.00  0.00    -0.097 F 
ATOM      8  F1  UNL d   1      -2.412   1.401   4.051  0.00  0.00    -0.096 F 
ATOM      9  I   UNL d   1      -3.866   0.520   1.340  0.00  0.00    -0.060 I 
ATOM     10  F2  UNL d   1      -1.741  -1.734   0.537  0.00  0.00    -0.096 F 
ATOM     11  F3  UNL d   1       0.521  -2.591   1.756  0.00  0.00    -0.097 F 
ATOM     12  F4  UNL d   1       1.328  -1.472   4.109  0.00  0.00    -0.092 F 
ENDROOT
TORSDOF 0
ENDMDL
