MODEL 1
REMARK minimizedAffinity 32.809536
REMARK minimizedRMSD -1
REMARK  0 active torsions:
REMARK  status: ('A' for Active; 'I' for Inactive)
ROOT
ATOM      1  C   UNL d   1      -3.957   1.270   2.603  0.00  0.00     0.124 A 
ATOM      2  C1  UNL d   1      -3.692   0.190   1.772  0.00  0.00     0.062 A 
ATOM      3  C2  UNL d   1      -2.488  -0.499   1.881  0.00  0.00     0.162 A 
ATOM      4  C3  UNL d   1      -1.538  -0.111   2.826  0.00  0.00    -0.034 A 
ATOM      5  C4  UNL d   1      -1.811   0.977   3.658  0.00  0.00     0.162 A 
ATOM      6  C5  UNL d   1      -3.016   1.662   3.545  0.00  0.00     0.062 A 
ATOM      7  F   UNL d   1      -3.270   2.705   4.349  0.00  0.00    -0.097 F 
ATOM      8  F1  UNL d   1      -0.920   1.377   4.577  0.00  0.00    -0.096 F 
ATOM      9  I   UNL d   1       0.264  -1.138   2.992  0.00  0.00    -0.060 I 
ATOM     10  F2  UNL d   1      -2.259  -1.538   1.065  0.00  0.00    -0.096 F 
ATOM     11  F3  UNL d   1      -4.599  -0.190   0.860  0.00  0.00    -0.097 F 
ATOM     12  F4  UNL d   1      -5.116   1.932   2.495  0.00  0.00    -0.092 F 
ENDROOT
TORSDOF 0
ENDMDL
