MODEL 1
REMARK minimizedAffinity 12.5743189
REMARK minimizedRMSD -1
REMARK  0 active torsions:
REMARK  status: ('A' for Active; 'I' for Inactive)
ROOT
ATOM      1  C   UNL d   1       3.012  -3.843   0.050  0.00  0.00     0.124 A 
ATOM      2  C1  UNL d   1       2.179  -3.247   0.987  0.00  0.00     0.062 A 
ATOM      3  C2  UNL d   1       2.133  -1.861   1.101  0.00  0.00     0.162 A 
ATOM      4  C3  UNL d   1       2.921  -1.060   0.275  0.00  0.00    -0.034 A 
ATOM      5  C4  UNL d   1       3.757  -1.666  -0.665  0.00  0.00     0.162 A 
ATOM      6  C5  UNL d   1       3.800  -3.052  -0.775  0.00  0.00     0.062 A 
ATOM      7  F   UNL d   1       4.605  -3.626  -1.681  0.00  0.00    -0.097 F 
ATOM      8  F1  UNL d   1       4.528  -0.926  -1.475  0.00  0.00    -0.096 F 
ATOM      9  I   UNL d   1       2.854   1.014   0.443  0.00  0.00    -0.060 I 
ATOM     10  F2  UNL d   1       1.319  -1.312   2.016  0.00  0.00    -0.096 F 
ATOM     11  F3  UNL d   1       1.418  -4.009   1.785  0.00  0.00    -0.097 F 
ATOM     12  F4  UNL d   1       3.055  -5.177  -0.057  0.00  0.00    -0.092 F 
ENDROOT
TORSDOF 0
ENDMDL
