MODEL 1
REMARK minimizedAffinity 17.8824043
REMARK minimizedRMSD -1
REMARK  0 active torsions:
REMARK  status: ('A' for Active; 'I' for Inactive)
ROOT
ATOM      1  C   UNL d   1       0.808  -4.286   0.059  0.00  0.00     0.124 A 
ATOM      2  C1  UNL d   1       1.804  -4.540  -0.874  0.00  0.00     0.062 A 
ATOM      3  C2  UNL d   1       1.472  -4.792  -2.202  0.00  0.00     0.162 A 
ATOM      4  C3  UNL d   1       0.137  -4.791  -2.606  0.00  0.00    -0.034 A 
ATOM      5  C4  UNL d   1      -0.860  -4.535  -1.662  0.00  0.00     0.162 A 
ATOM      6  C5  UNL d   1      -0.522  -4.284  -0.336  0.00  0.00     0.062 A 
ATOM      7  F   UNL d   1      -1.486  -4.038   0.564  0.00  0.00    -0.097 F 
ATOM      8  F1  UNL d   1      -2.153  -4.526  -2.016  0.00  0.00    -0.096 F 
ATOM      9  I   UNL d   1      -0.364  -5.168  -4.590  0.00  0.00    -0.060 I 
ATOM     10  F2  UNL d   1       2.455  -5.035  -3.082  0.00  0.00    -0.096 F 
ATOM     11  F3  UNL d   1       3.090  -4.543  -0.495  0.00  0.00    -0.097 F 
ATOM     12  F4  UNL d   1       1.130  -4.044   1.336  0.00  0.00    -0.092 F 
ENDROOT
TORSDOF 0
ENDMDL
