MODEL 1
REMARK minimizedAffinity 26.5043049
REMARK minimizedRMSD -1
REMARK  0 active torsions:
REMARK  status: ('A' for Active; 'I' for Inactive)
ROOT
ATOM      1  C   UNL d   1      -2.236   0.293   3.203  0.00  0.00     0.124 A 
ATOM      2  C1  UNL d   1      -1.900  -0.264   1.977  0.00  0.00     0.062 A 
ATOM      3  C2  UNL d   1      -2.827  -0.280   0.938  0.00  0.00     0.162 A 
ATOM      4  C3  UNL d   1      -4.098   0.264   1.121  0.00  0.00    -0.034 A 
ATOM      5  C4  UNL d   1      -4.429   0.821   2.358  0.00  0.00     0.162 A 
ATOM      6  C5  UNL d   1      -3.499   0.835   3.392  0.00  0.00     0.062 A 
ATOM      7  F   UNL d   1      -3.825   1.373   4.577  0.00  0.00    -0.097 F 
ATOM      8  F1  UNL d   1      -5.642   1.353   2.568  0.00  0.00    -0.096 F 
ATOM      9  I   UNL d   1      -5.487   0.242  -0.429  0.00  0.00    -0.060 I 
ATOM     10  F2  UNL d   1      -2.476  -0.824  -0.236  0.00  0.00    -0.096 F 
ATOM     11  F3  UNL d   1      -0.681  -0.789   1.791  0.00  0.00    -0.097 F 
ATOM     12  F4  UNL d   1      -1.343   0.306   4.201  0.00  0.00    -0.092 F 
ENDROOT
TORSDOF 0
ENDMDL
