MODEL 1
REMARK minimizedAffinity 20.0955334
REMARK minimizedRMSD -1
REMARK  0 active torsions:
REMARK  status: ('A' for Active; 'I' for Inactive)
ROOT
ATOM      1  C   UNL d   1      -2.520  -0.597   1.669  0.00  0.00     0.124 A 
ATOM      2  C1  UNL d   1      -2.581  -1.963   1.429  0.00  0.00     0.062 A 
ATOM      3  C2  UNL d   1      -1.416  -2.682   1.174  0.00  0.00     0.162 A 
ATOM      4  C3  UNL d   1      -0.180  -2.036   1.158  0.00  0.00    -0.034 A 
ATOM      5  C4  UNL d   1      -0.127  -0.662   1.399  0.00  0.00     0.162 A 
ATOM      6  C5  UNL d   1      -1.293   0.052   1.653  0.00  0.00     0.062 A 
ATOM      7  F   UNL d   1      -1.233   1.371   1.884  0.00  0.00    -0.097 F 
ATOM      8  F1  UNL d   1       1.045  -0.010   1.391  0.00  0.00    -0.096 F 
ATOM      9  I   UNL d   1       1.563  -3.107   0.777  0.00  0.00    -0.060 I 
ATOM     10  F2  UNL d   1      -1.505  -4.001   0.946  0.00  0.00    -0.096 F 
ATOM     11  F3  UNL d   1      -3.765  -2.593   1.443  0.00  0.00    -0.097 F 
ATOM     12  F4  UNL d   1      -3.642   0.092   1.913  0.00  0.00    -0.092 F 
ENDROOT
TORSDOF 0
ENDMDL
