MODEL 1
REMARK minimizedAffinity -2.86874652
REMARK minimizedRMSD -1
REMARK  0 active torsions:
REMARK  status: ('A' for Active; 'I' for Inactive)
ROOT
ATOM      1  C   UNL d   1      -1.066  -1.575   0.740  0.00  0.00     0.124 A 
ATOM      2  C1  UNL d   1      -1.565  -0.420   0.154  0.00  0.00     0.062 A 
ATOM      3  C2  UNL d   1      -0.700   0.491  -0.445  0.00  0.00     0.162 A 
ATOM      4  C3  UNL d   1       0.674   0.251  -0.463  0.00  0.00    -0.034 A 
ATOM      5  C4  UNL d   1       1.169  -0.912   0.129  0.00  0.00     0.162 A 
ATOM      6  C5  UNL d   1       0.300  -1.820   0.727  0.00  0.00     0.062 A 
ATOM      7  F   UNL d   1       0.785  -2.935   1.292  0.00  0.00    -0.097 F 
ATOM      8  F1  UNL d   1       2.484  -1.174   0.131  0.00  0.00    -0.096 F 
ATOM      9  I   UNL d   1       1.970   1.612  -1.357  0.00  0.00    -0.060 I 
ATOM     10  F2  UNL d   1      -1.211   1.599  -1.004  0.00  0.00    -0.096 F 
ATOM     11  F3  UNL d   1      -2.884  -0.181   0.166  0.00  0.00    -0.097 F 
ATOM     12  F4  UNL d   1      -1.900  -2.450   1.316  0.00  0.00    -0.092 F 
ENDROOT
TORSDOF 0
ENDMDL
