MODEL 1
REMARK minimizedAffinity 3.44048977
REMARK minimizedRMSD -1
REMARK  0 active torsions:
REMARK  status: ('A' for Active; 'I' for Inactive)
ROOT
ATOM      1  C   UNL d   1      -2.066   0.199   2.359  0.00  0.00     0.124 A 
ATOM      2  C1  UNL d   1      -1.566  -1.074   2.597  0.00  0.00     0.062 A 
ATOM      3  C2  UNL d   1      -0.529  -1.577   1.816  0.00  0.00     0.162 A 
ATOM      4  C3  UNL d   1       0.017  -0.805   0.790  0.00  0.00    -0.034 A 
ATOM      5  C4  UNL d   1      -0.492   0.474   0.556  0.00  0.00     0.162 A 
ATOM      6  C5  UNL d   1      -1.528   0.972   1.339  0.00  0.00     0.062 A 
ATOM      7  F   UNL d   1      -2.009   2.202   1.108  0.00  0.00    -0.097 F 
ATOM      8  F1  UNL d   1       0.010   1.243  -0.422  0.00  0.00    -0.096 F 
ATOM      9  I   UNL d   1       1.567  -1.552  -0.380  0.00  0.00    -0.060 I 
ATOM     10  F2  UNL d   1      -0.066  -2.810   2.068  0.00  0.00    -0.096 F 
ATOM     11  F3  UNL d   1      -2.085  -1.823   3.580  0.00  0.00    -0.097 F 
ATOM     12  F4  UNL d   1      -3.064   0.679   3.111  0.00  0.00    -0.092 F 
ENDROOT
TORSDOF 0
ENDMDL
