MODEL 1
REMARK minimizedAffinity 3.16012049
REMARK minimizedRMSD -1
REMARK  2 active torsions:
REMARK  status: ('A' for Active; 'I' for Inactive)
REMARK    1  A    between atoms: C1_2  and  C2_3 
REMARK    2  A    between atoms: C2_3  and  C3_4 
ROOT
ATOM      1  C3  UNL d   1      -2.413   4.373  -3.232  0.00  0.00    -0.075 A 
ATOM      2  C4  UNL d   1      -1.281   4.489  -4.050  0.00  0.00     0.002 A 
ATOM      3  C5  UNL d   1      -0.096   5.030  -3.549  0.00  0.00     0.002 A 
ATOM      4  C6  UNL d   1      -0.032   5.471  -2.229  0.00  0.00    -0.004 A 
ATOM      5  C7  UNL d   1      -1.157   5.376  -1.411  0.00  0.00     0.002 A 
ATOM      6  C8  UNL d   1      -2.341   4.831  -1.909  0.00  0.00     0.002 A 
ENDROOT
BRANCH   1   7
ATOM      7  C2  UNL d   1      -3.689   3.762  -3.760  0.00  0.00     0.056 C 
BRANCH   7   8
ATOM      8  C1  UNL d   1      -4.825   3.705  -2.733  0.00  0.00     0.007 C 
ATOM      9  C   UNL d   1      -5.006   2.325  -2.114  0.00  0.00     0.009 C 
ENDBRANCH   7   8
ENDBRANCH   1   7
TORSDOF 2
ENDMDL
