MODEL 1
REMARK minimizedAffinity 10.0376558
REMARK minimizedRMSD -1
REMARK  2 active torsions:
REMARK  status: ('A' for Active; 'I' for Inactive)
REMARK    1  A    between atoms: C1_2  and  C2_3 
REMARK    2  A    between atoms: C2_3  and  C3_4 
ROOT
ATOM      1  C3  UNL d   1       0.315   3.134  -0.506  0.00  0.00    -0.075 A 
ATOM      2  C4  UNL d   1       1.623   3.449  -0.108  0.00  0.00     0.002 A 
ATOM      3  C5  UNL d   1       2.100   3.046   1.139  0.00  0.00     0.002 A 
ATOM      4  C6  UNL d   1       1.275   2.335   2.008  0.00  0.00    -0.004 A 
ATOM      5  C7  UNL d   1      -0.031   2.031   1.630  0.00  0.00     0.002 A 
ATOM      6  C8  UNL d   1      -0.510   2.428   0.380  0.00  0.00     0.002 A 
ENDROOT
BRANCH   1   7
ATOM      7  C2  UNL d   1      -0.197   3.541  -1.867  0.00  0.00     0.056 C 
BRANCH   7   8
ATOM      8  C1  UNL d   1      -1.141   4.748  -1.843  0.00  0.00     0.007 C 
ATOM      9  C   UNL d   1      -2.479   4.478  -2.518  0.00  0.00     0.009 C 
ENDBRANCH   7   8
ENDBRANCH   1   7
TORSDOF 2
ENDMDL
