MODEL 1
REMARK minimizedAffinity 1.89820492
REMARK minimizedRMSD -1
REMARK  2 active torsions:
REMARK  status: ('A' for Active; 'I' for Inactive)
REMARK    1  A    between atoms: C1_2  and  C2_3 
REMARK    2  A    between atoms: C2_3  and  C3_4 
ROOT
ATOM      1  C3  UNL d   1      -2.830  -4.014  -5.993  0.00  0.00    -0.075 A 
ATOM      2  C4  UNL d   1      -3.985  -3.217  -5.996  0.00  0.00     0.002 A 
ATOM      3  C5  UNL d   1      -5.250  -3.805  -5.982  0.00  0.00     0.002 A 
ATOM      4  C6  UNL d   1      -5.378  -5.192  -5.976  0.00  0.00    -0.004 A 
ATOM      5  C7  UNL d   1      -4.238  -5.993  -5.989  0.00  0.00     0.002 A 
ATOM      6  C8  UNL d   1      -2.970  -5.408  -5.998  0.00  0.00     0.002 A 
ENDROOT
BRANCH   1   7
ATOM      7  C2  UNL d   1      -1.458  -3.384  -5.978  0.00  0.00     0.056 C 
BRANCH   7   8
ATOM      8  C1  UNL d   1      -0.330  -4.355  -5.613  0.00  0.00     0.007 C 
ATOM      9  C   UNL d   1       1.052  -3.840  -5.993  0.00  0.00     0.009 C 
ENDBRANCH   7   8
ENDBRANCH   1   7
TORSDOF 2
ENDMDL
