MODEL 1
REMARK minimizedAffinity 7.77155399
REMARK minimizedRMSD -1
REMARK  2 active torsions:
REMARK  status: ('A' for Active; 'I' for Inactive)
REMARK    1  A    between atoms: C1_2  and  C2_3 
REMARK    2  A    between atoms: C2_3  and  C3_4 
ROOT
ATOM      1  C3  UNL d   1      -1.226   4.126  -2.807  0.00  0.00    -0.075 A 
ATOM      2  C4  UNL d   1      -0.406   3.240  -2.094  0.00  0.00     0.002 A 
ATOM      3  C5  UNL d   1       0.130   3.608  -0.859  0.00  0.00     0.002 A 
ATOM      4  C6  UNL d   1      -0.139   4.867  -0.327  0.00  0.00    -0.004 A 
ATOM      5  C7  UNL d   1      -0.939   5.762  -1.035  0.00  0.00     0.002 A 
ATOM      6  C8  UNL d   1      -1.480   5.394  -2.268  0.00  0.00     0.002 A 
ENDROOT
BRANCH   1   7
ATOM      7  C2  UNL d   1      -1.832   3.723  -4.130  0.00  0.00     0.056 C 
BRANCH   7   8
ATOM      8  C1  UNL d   1      -3.327   3.394  -4.057  0.00  0.00     0.007 C 
ATOM      9  C   UNL d   1      -3.792   2.464  -5.170  0.00  0.00     0.009 C 
ENDBRANCH   7   8
ENDBRANCH   1   7
TORSDOF 2
ENDMDL
