MODEL 1
REMARK minimizedAffinity 17.1874523
REMARK minimizedRMSD -1
REMARK  2 active torsions:
REMARK  status: ('A' for Active; 'I' for Inactive)
REMARK    1  A    between atoms: C2'_3  and  C1'_4 
REMARK    2  A    between atoms: C1'_4  and  C1_5 
ROOT
ATOM      1  C1  I4B d   1       4.677   3.415  -5.545  0.00  0.00    -0.075 A 
ATOM      2  C2  I4B d   1       3.798   3.972  -4.650  0.00  0.00     0.003 A 
ATOM      3  C3  I4B d   1       4.004   5.291  -4.176  0.00  0.00     0.002 A 
ATOM      4  C4  I4B d   1       5.122   5.992  -4.581  0.00  0.00    -0.004 A 
ATOM      5  C5  I4B d   1       6.000   5.433  -5.505  0.00  0.00     0.002 A 
ATOM      6  C6  I4B d   1       5.770   4.141  -6.000  0.00  0.00     0.003 A 
ENDROOT
BRANCH   1   7
ATOM      7  C1' I4B d   1       4.447   2.008  -5.999  0.00  0.00     0.060 C 
BRANCH   7   8
ATOM      8  C2' I4B d   1       4.984   1.078  -4.930  0.00  0.00    -0.013 C 
ATOM      9  C4' I4B d   1       3.874   0.553  -4.058  0.00  0.00     0.013 C 
ATOM     10  C3' I4B d   1       5.712  -0.041  -5.613  0.00  0.00     0.013 C 
ENDBRANCH   7   8
ENDBRANCH   1   7
TORSDOF 2
ENDMDL
