MODEL 1
REMARK minimizedAffinity 9.7332325
REMARK minimizedRMSD -1
REMARK  2 active torsions:
REMARK  status: ('A' for Active; 'I' for Inactive)
REMARK    1  A    between atoms: C2'_3  and  C1'_4 
REMARK    2  A    between atoms: C1'_4  and  C1_5 
ROOT
ATOM      1  C1  I4B d   1      -5.142  -3.366  -4.316  0.00  0.00    -0.075 A 
ATOM      2  C2  I4B d   1      -5.886  -3.698  -5.420  0.00  0.00     0.003 A 
ATOM      3  C3  I4B d   1      -5.770  -4.985  -5.998  0.00  0.00     0.002 A 
ATOM      4  C4  I4B d   1      -4.865  -5.886  -5.474  0.00  0.00    -0.004 A 
ATOM      5  C5  I4B d   1      -4.127  -5.556  -4.341  0.00  0.00     0.002 A 
ATOM      6  C6  I4B d   1      -4.275  -4.293  -3.751  0.00  0.00     0.003 A 
ENDROOT
BRANCH   1   7
ATOM      7  C1' I4B d   1      -5.265  -1.987  -3.751  0.00  0.00     0.060 C 
BRANCH   7   8
ATOM      8  C2' I4B d   1      -4.227  -1.835  -2.658  0.00  0.00    -0.013 C 
ATOM      9  C4' I4B d   1      -3.276  -0.708  -2.963  0.00  0.00     0.013 C 
ATOM     10  C3' I4B d   1      -4.948  -1.600  -1.364  0.00  0.00     0.013 C 
ENDBRANCH   7   8
ENDBRANCH   1   7
TORSDOF 2
ENDMDL
