MODEL 1
REMARK minimizedAffinity 9.35028744
REMARK minimizedRMSD -1
REMARK  2 active torsions:
REMARK  status: ('A' for Active; 'I' for Inactive)
REMARK    1  A    between atoms: C2'_3  and  C1'_4 
REMARK    2  A    between atoms: C1'_4  and  C1_5 
ROOT
ATOM      1  C1  I4B d   1       4.553   5.622  -3.228  0.00  0.00    -0.075 A 
ATOM      2  C2  I4B d   1       3.475   5.515  -4.070  0.00  0.00     0.003 A 
ATOM      3  C3  I4B d   1       3.649   5.632  -5.470  0.00  0.00     0.002 A 
ATOM      4  C4  I4B d   1       4.903   5.905  -5.978  0.00  0.00    -0.004 A 
ATOM      5  C5  I4B d   1       5.999   5.990  -5.125  0.00  0.00     0.002 A 
ATOM      6  C6  I4B d   1       5.826   5.835  -3.742  0.00  0.00     0.003 A 
ENDROOT
BRANCH   1   7
ATOM      7  C1' I4B d   1       4.328   5.525  -1.752  0.00  0.00     0.060 C 
BRANCH   7   8
ATOM      8  C2' I4B d   1       3.267   4.472  -1.510  0.00  0.00    -0.013 C 
ATOM      9  C4' I4B d   1       1.887   5.075  -1.526  0.00  0.00     0.013 C 
ATOM     10  C3' I4B d   1       3.409   3.419  -2.568  0.00  0.00     0.013 C 
ENDBRANCH   7   8
ENDBRANCH   1   7
TORSDOF 2
ENDMDL
