MODEL 1
REMARK minimizedAffinity 0.441469282
REMARK minimizedRMSD -1
REMARK  2 active torsions:
REMARK  status: ('A' for Active; 'I' for Inactive)
REMARK    1  A    between atoms: C2'_3  and  C1'_4 
REMARK    2  A    between atoms: C1'_4  and  C1_5 
ROOT
ATOM      1  C1  I4B d   1      -0.624   0.145  -0.285  0.00  0.00    -0.075 A 
ATOM      2  C2  I4B d   1      -0.980   1.293   0.378  0.00  0.00     0.003 A 
ATOM      3  C3  I4B d   1      -2.153   1.995   0.008  0.00  0.00     0.002 A 
ATOM      4  C4  I4B d   1      -2.907   1.546  -1.056  0.00  0.00    -0.004 A 
ATOM      5  C5  I4B d   1      -2.557   0.370  -1.713  0.00  0.00     0.002 A 
ATOM      6  C6  I4B d   1      -1.415  -0.342  -1.317  0.00  0.00     0.003 A 
ENDROOT
BRANCH   1   7
ATOM      7  C1' I4B d   1       0.638  -0.553   0.110  0.00  0.00     0.060 C 
BRANCH   7   8
ATOM      8  C2' I4B d   1       0.941  -0.192   1.549  0.00  0.00    -0.013 C 
ATOM      9  C4' I4B d   1       1.047  -1.423   2.410  0.00  0.00     0.013 C 
ATOM     10  C3' I4B d   1       2.218   0.595   1.571  0.00  0.00     0.013 C 
ENDBRANCH   7   8
ENDBRANCH   1   7
TORSDOF 2
ENDMDL
