MODEL 1
REMARK minimizedAffinity 17.6133633
REMARK minimizedRMSD -1
REMARK  2 active torsions:
REMARK  status: ('A' for Active; 'I' for Inactive)
REMARK    1  A    between atoms: C2'_3  and  C1'_4 
REMARK    2  A    between atoms: C1'_4  and  C1_5 
ROOT
ATOM      1  C1  I4B d   1      -2.991   0.625  -1.649  0.00  0.00    -0.075 A 
ATOM      2  C2  I4B d   1      -2.786   1.977  -1.760  0.00  0.00     0.003 A 
ATOM      3  C3  I4B d   1      -2.319   2.721  -0.650  0.00  0.00     0.002 A 
ATOM      4  C4  I4B d   1      -2.120   2.085   0.559  0.00  0.00    -0.004 A 
ATOM      5  C5  I4B d   1      -2.307   0.710   0.663  0.00  0.00     0.002 A 
ATOM      6  C6  I4B d   1      -2.734  -0.028  -0.451  0.00  0.00     0.003 A 
ENDROOT
BRANCH   1   7
ATOM      7  C1' I4B d   1      -3.516  -0.124  -2.833  0.00  0.00     0.060 C 
BRANCH   7   8
ATOM      8  C2' I4B d   1      -4.908   0.394  -3.134  0.00  0.00    -0.013 C 
ATOM      9  C4' I4B d   1      -5.787   0.336  -1.912  0.00  0.00     0.013 C 
ATOM     10  C3' I4B d   1      -4.779   1.799  -3.641  0.00  0.00     0.013 C 
ENDBRANCH   7   8
ENDBRANCH   1   7
TORSDOF 2
ENDMDL
