MODEL 1
REMARK minimizedAffinity 11.2838135
REMARK minimizedRMSD -1
REMARK  2 active torsions:
REMARK  status: ('A' for Active; 'I' for Inactive)
REMARK    1  A    between atoms: C2'_3  and  C1'_4 
REMARK    2  A    between atoms: C1'_4  and  C1_5 
ROOT
ATOM      1  C1  I4B d   1       1.212   0.222   2.290  0.00  0.00    -0.075 A 
ATOM      2  C2  I4B d   1       1.791  -0.556   1.320  0.00  0.00     0.003 A 
ATOM      3  C3  I4B d   1       2.123  -1.905   1.592  0.00  0.00     0.002 A 
ATOM      4  C4  I4B d   1       1.907  -2.417   2.856  0.00  0.00    -0.004 A 
ATOM      5  C5  I4B d   1       1.298  -1.633   3.831  0.00  0.00     0.002 A 
ATOM      6  C6  I4B d   1       0.937  -0.309   3.544  0.00  0.00     0.003 A 
ENDROOT
BRANCH   1   7
ATOM      7  C1' I4B d   1       0.904   1.653   1.979  0.00  0.00     0.060 C 
BRANCH   7   8
ATOM      8  C2' I4B d   1       2.176   2.455   2.163  0.00  0.00    -0.013 C 
ATOM      9  C4' I4B d   1       2.437   3.343   0.976  0.00  0.00     0.013 C 
ATOM     10  C3' I4B d   1       2.038   3.259   3.421  0.00  0.00     0.013 C 
ENDBRANCH   7   8
ENDBRANCH   1   7
TORSDOF 2
ENDMDL
