MODEL 1
REMARK minimizedAffinity 1.54818499
REMARK minimizedRMSD -1
REMARK  2 active torsions:
REMARK  status: ('A' for Active; 'I' for Inactive)
REMARK    1  A    between atoms: C2'_3  and  C1'_4 
REMARK    2  A    between atoms: C1'_4  and  C1_5 
ROOT
ATOM      1  C1  I4B d   1       2.757  -1.743   2.336  0.00  0.00    -0.075 A 
ATOM      2  C2  I4B d   1       2.419  -2.392   3.498  0.00  0.00     0.003 A 
ATOM      3  C3  I4B d   1       1.554  -1.774   4.433  0.00  0.00     0.002 A 
ATOM      4  C4  I4B d   1       1.094  -0.495   4.193  0.00  0.00    -0.004 A 
ATOM      5  C5  I4B d   1       1.419   0.152   3.004  0.00  0.00     0.002 A 
ATOM      6  C6  I4B d   1       2.246  -0.481   2.064  0.00  0.00     0.003 A 
ENDROOT
BRANCH   1   7
ATOM      7  C1' I4B d   1       3.698  -2.411   1.385  0.00  0.00     0.060 C 
BRANCH   7   8
ATOM      8  C2' I4B d   1       5.110  -2.021   1.774  0.00  0.00    -0.013 C 
ATOM      9  C4' I4B d   1       5.790  -3.125   2.539  0.00  0.00     0.013 C 
ATOM     10  C3' I4B d   1       5.861  -1.689   0.519  0.00  0.00     0.013 C 
ENDBRANCH   7   8
ENDBRANCH   1   7
TORSDOF 2
ENDMDL
