MODEL 1
REMARK minimizedAffinity -1.78947103
REMARK minimizedRMSD -1
REMARK  1 active torsions:
REMARK  status: ('A' for Active; 'I' for Inactive)
REMARK    1  A    between atoms: C1_2  and  C2_3 
ROOT
ATOM      1  C2  UNL d   1      -0.208   0.295   0.984  0.00  0.00    -0.077 A 
ATOM      2  C3  UNL d   1      -0.446   1.090   2.114  0.00  0.00     0.002 A 
ATOM      3  C4  UNL d   1      -1.203   2.258   2.008  0.00  0.00     0.002 A 
ATOM      4  C5  UNL d   1      -1.731   2.640   0.777  0.00  0.00    -0.004 A 
ATOM      5  C6  UNL d   1      -1.498   1.857  -0.353  0.00  0.00     0.002 A 
ATOM      6  C7  UNL d   1      -0.740   0.690  -0.250  0.00  0.00     0.002 A 
ENDROOT
BRANCH   1   7
ATOM      7  C1  UNL d   1       0.567  -0.991   1.105  0.00  0.00     0.055 C 
ATOM      8  C   UNL d   1       0.695  -1.426   2.558  0.00  0.00     0.019 C 
ENDBRANCH   1   7
TORSDOF 1
ENDMDL
