MODEL 1
REMARK minimizedAffinity -4.13058853
REMARK minimizedRMSD -1
REMARK  1 active torsions:
REMARK  status: ('A' for Active; 'I' for Inactive)
REMARK    1  A    between atoms: C1_2  and  C2_3 
ROOT
ATOM      1  C2  UNL d   1       0.315  -0.249   0.167  0.00  0.00    -0.077 A 
ATOM      2  C3  UNL d   1       0.091  -0.683   1.481  0.00  0.00     0.002 A 
ATOM      3  C4  UNL d   1      -0.826  -0.018   2.297  0.00  0.00     0.002 A 
ATOM      4  C5  UNL d   1      -1.528   1.081   1.808  0.00  0.00    -0.004 A 
ATOM      5  C6  UNL d   1      -1.311   1.522   0.504  0.00  0.00     0.002 A 
ATOM      6  C7  UNL d   1      -0.394   0.859  -0.314  0.00  0.00     0.002 A 
ENDROOT
BRANCH   1   7
ATOM      7  C1  UNL d   1       1.267  -0.994  -0.732  0.00  0.00     0.055 C 
ATOM      8  C   UNL d   1       0.565  -2.132  -1.459  0.00  0.00     0.019 C 
ENDBRANCH   1   7
TORSDOF 1
ENDMDL
