MODEL 1
REMARK minimizedAffinity -4.22218132
REMARK minimizedRMSD -1
REMARK  1 active torsions:
REMARK  status: ('A' for Active; 'I' for Inactive)
REMARK    1  A    between atoms: C1_2  and  C2_3 
ROOT
ATOM      1  C2  UNL d   1       0.224   0.179   0.189  0.00  0.00    -0.077 A 
ATOM      2  C3  UNL d   1      -0.125   1.277  -0.611  0.00  0.00     0.002 A 
ATOM      3  C4  UNL d   1      -0.983   2.263  -0.120  0.00  0.00     0.002 A 
ATOM      4  C5  UNL d   1      -1.496   2.164   1.171  0.00  0.00    -0.004 A 
ATOM      5  C6  UNL d   1      -1.156   1.075   1.973  0.00  0.00     0.002 A 
ATOM      6  C7  UNL d   1      -0.300   0.088   1.485  0.00  0.00     0.002 A 
ENDROOT
BRANCH   1   7
ATOM      7  C1  UNL d   1       1.188  -0.860  -0.321  0.00  0.00     0.055 C 
ATOM      8  C   UNL d   1       0.476  -1.910  -1.162  0.00  0.00     0.019 C 
ENDBRANCH   1   7
TORSDOF 1
ENDMDL
