MODEL 1
REMARK minimizedAffinity -2.33726573
REMARK minimizedRMSD -1
REMARK  1 active torsions:
REMARK  status: ('A' for Active; 'I' for Inactive)
REMARK    1  A    between atoms: C1_2  and  C2_3 
ROOT
ATOM      1  C2  UNL d   1       0.145   0.075  -0.451  0.00  0.00    -0.077 A 
ATOM      2  C3  UNL d   1       1.098   0.784  -1.196  0.00  0.00     0.002 A 
ATOM      3  C4  UNL d   1       0.805   2.059  -1.685  0.00  0.00     0.002 A 
ATOM      4  C5  UNL d   1      -0.437   2.636  -1.432  0.00  0.00    -0.004 A 
ATOM      5  C6  UNL d   1      -1.392   1.938  -0.694  0.00  0.00     0.002 A 
ATOM      6  C7  UNL d   1      -1.102   0.663  -0.205  0.00  0.00     0.002 A 
ENDROOT
BRANCH   1   7
ATOM      7  C1  UNL d   1       0.476  -1.280   0.120  0.00  0.00     0.055 C 
ATOM      8  C   UNL d   1       0.679  -1.211   1.626  0.00  0.00     0.019 C 
ENDBRANCH   1   7
TORSDOF 1
ENDMDL
