MODEL 1
REMARK minimizedAffinity -2.12315798
REMARK minimizedRMSD -1
REMARK  1 active torsions:
REMARK  status: ('A' for Active; 'I' for Inactive)
REMARK    1  A    between atoms: C1_2  and  C2_3 
ROOT
ATOM      1  C2  UNL d   1       0.619  -0.617  -0.880  0.00  0.00    -0.077 A 
ATOM      2  C3  UNL d   1      -0.435  -0.213  -0.048  0.00  0.00     0.002 A 
ATOM      3  C4  UNL d   1      -0.823   1.127   0.001  0.00  0.00     0.002 A 
ATOM      4  C5  UNL d   1      -0.166   2.073  -0.783  0.00  0.00    -0.004 A 
ATOM      5  C6  UNL d   1       0.885   1.682  -1.612  0.00  0.00     0.002 A 
ATOM      6  C7  UNL d   1       1.275   0.344  -1.661  0.00  0.00     0.002 A 
ENDROOT
BRANCH   1   7
ATOM      7  C1  UNL d   1       1.007  -2.069  -0.971  0.00  0.00     0.055 C 
ATOM      8  C   UNL d   1       0.292  -2.762  -2.122  0.00  0.00     0.019 C 
ENDBRANCH   1   7
TORSDOF 1
ENDMDL
