MODEL 1
REMARK minimizedAffinity -2.95957828
REMARK minimizedRMSD -1
REMARK  1 active torsions:
REMARK  status: ('A' for Active; 'I' for Inactive)
REMARK    1  A    between atoms: C1_2  and  C2_3 
ROOT
ATOM      1  C2  UNL d   1      -0.290   0.258   0.492  0.00  0.00    -0.077 A 
ATOM      2  C3  UNL d   1       0.197  -0.932  -0.067  0.00  0.00     0.002 A 
ATOM      3  C4  UNL d   1       1.096  -0.895  -1.135  0.00  0.00     0.002 A 
ATOM      4  C5  UNL d   1       1.519   0.328  -1.650  0.00  0.00    -0.004 A 
ATOM      5  C6  UNL d   1       1.039   1.517  -1.102  0.00  0.00     0.002 A 
ATOM      6  C7  UNL d   1       0.140   1.483  -0.036  0.00  0.00     0.002 A 
ENDROOT
BRANCH   1   7
ATOM      7  C1  UNL d   1      -1.221   0.221   1.675  0.00  0.00     0.055 C 
ATOM      8  C   UNL d   1      -1.522   1.622   2.186  0.00  0.00     0.019 C 
ENDBRANCH   1   7
TORSDOF 1
ENDMDL
