MODEL 1
REMARK minimizedAffinity -5.01786184
REMARK minimizedRMSD -1
REMARK  1 active torsions:
REMARK  status: ('A' for Active; 'I' for Inactive)
REMARK    1  A    between atoms: C1_2  and  C2_3 
ROOT
ATOM      1  C2  UNL d   1      -0.325   0.807   0.146  0.00  0.00    -0.077 A 
ATOM      2  C3  UNL d   1      -1.091   0.736   1.318  0.00  0.00     0.002 A 
ATOM      3  C4  UNL d   1      -1.670   1.887   1.855  0.00  0.00     0.002 A 
ATOM      4  C5  UNL d   1      -1.492   3.117   1.225  0.00  0.00    -0.004 A 
ATOM      5  C6  UNL d   1      -0.730   3.199   0.060  0.00  0.00     0.002 A 
ATOM      6  C7  UNL d   1      -0.150   2.049  -0.477  0.00  0.00     0.002 A 
ENDROOT
BRANCH   1   7
ATOM      7  C1  UNL d   1       0.258  -0.442  -0.462  0.00  0.00     0.055 C 
ATOM      8  C   UNL d   1      -0.829  -1.335  -1.042  0.00  0.00     0.019 C 
ENDBRANCH   1   7
TORSDOF 1
ENDMDL
