MODEL 1
REMARK minimizedAffinity -3.79111362
REMARK minimizedRMSD -1
REMARK  1 active torsions:
REMARK  status: ('A' for Active; 'I' for Inactive)
REMARK    1  A    between atoms: C1_2  and  C2_3 
ROOT
ATOM      1  C2  UNL d   1      -0.431   0.265   0.183  0.00  0.00    -0.077 A 
ATOM      2  C3  UNL d   1      -1.557   0.847  -0.417  0.00  0.00     0.002 A 
ATOM      3  C4  UNL d   1      -2.404   1.673   0.324  0.00  0.00     0.002 A 
ATOM      4  C5  UNL d   1      -2.133   1.928   1.667  0.00  0.00    -0.004 A 
ATOM      5  C6  UNL d   1      -1.017   1.352   2.273  0.00  0.00     0.002 A 
ATOM      6  C7  UNL d   1      -0.170   0.525   1.534  0.00  0.00     0.002 A 
ENDROOT
BRANCH   1   7
ATOM      7  C1  UNL d   1       0.511  -0.586  -0.627  0.00  0.00     0.055 C 
ATOM      8  C   UNL d   1       1.560   0.264  -1.329  0.00  0.00     0.019 C 
ENDBRANCH   1   7
TORSDOF 1
ENDMDL
