MODEL 1
REMARK minimizedAffinity -4.24493837
REMARK minimizedRMSD -1
REMARK  1 active torsions:
REMARK  status: ('A' for Active; 'I' for Inactive)
REMARK    1  A    between atoms: C1_2  and  C2_3 
ROOT
ATOM      1  C2  UNL d   1      -0.459   1.042   0.877  0.00  0.00    -0.077 A 
ATOM      2  C3  UNL d   1      -1.434   1.575   1.733  0.00  0.00     0.002 A 
ATOM      3  C4  UNL d   1      -2.032   2.804   1.444  0.00  0.00     0.002 A 
ATOM      4  C5  UNL d   1      -1.665   3.507   0.299  0.00  0.00    -0.004 A 
ATOM      5  C6  UNL d   1      -0.695   2.986  -0.557  0.00  0.00     0.002 A 
ATOM      6  C7  UNL d   1      -0.096   1.759  -0.270  0.00  0.00     0.002 A 
ENDROOT
BRANCH   1   7
ATOM      7  C1  UNL d   1       0.151  -0.305   1.161  0.00  0.00     0.055 C 
ATOM      8  C   UNL d   1      -0.747  -1.433   0.673  0.00  0.00     0.019 C 
ENDBRANCH   1   7
TORSDOF 1
ENDMDL
