MODEL 1
REMARK minimizedAffinity -5.5826087
REMARK minimizedRMSD -1
REMARK  1 active torsions:
REMARK  status: ('A' for Active; 'I' for Inactive)
REMARK    1  A    between atoms: C1_2  and  C2_3 
ROOT
ATOM      1  C2  UNL d   1       0.094   0.637   0.031  0.00  0.00    -0.077 A 
ATOM      2  C3  UNL d   1      -0.419   0.050   1.197  0.00  0.00     0.002 A 
ATOM      3  C4  UNL d   1      -1.430   0.685   1.921  0.00  0.00     0.002 A 
ATOM      4  C5  UNL d   1      -1.939   1.907   1.486  0.00  0.00    -0.004 A 
ATOM      5  C6  UNL d   1      -1.433   2.500   0.329  0.00  0.00     0.002 A 
ATOM      6  C7  UNL d   1      -0.422   1.867  -0.395  0.00  0.00     0.002 A 
ENDROOT
BRANCH   1   7
ATOM      7  C1  UNL d   1       1.150  -0.070  -0.778  0.00  0.00     0.055 C 
ATOM      8  C   UNL d   1       0.602  -1.340  -1.413  0.00  0.00     0.019 C 
ENDBRANCH   1   7
TORSDOF 1
ENDMDL
