MODEL 1
REMARK minimizedAffinity -3.31311154
REMARK minimizedRMSD -1
REMARK  1 active torsions:
REMARK  status: ('A' for Active; 'I' for Inactive)
REMARK    1  A    between atoms: C1_2  and  C2_3 
ROOT
ATOM      1  C2  UNL d   1      -0.522  -0.568  -0.092  0.00  0.00    -0.077 A 
ATOM      2  C3  UNL d   1      -0.612  -1.890  -0.550  0.00  0.00     0.002 A 
ATOM      3  C4  UNL d   1       0.388  -2.425  -1.366  0.00  0.00     0.002 A 
ATOM      4  C5  UNL d   1       1.486  -1.646  -1.726  0.00  0.00    -0.004 A 
ATOM      5  C6  UNL d   1       1.583  -0.330  -1.277  0.00  0.00     0.002 A 
ATOM      6  C7  UNL d   1       0.584   0.206  -0.463  0.00  0.00     0.002 A 
ENDROOT
BRANCH   1   7
ATOM      7  C1  UNL d   1      -1.574  -0.006   0.828  0.00  0.00     0.055 C 
ATOM      8  C   UNL d   1      -0.960   0.906   1.880  0.00  0.00     0.019 C 
ENDBRANCH   1   7
TORSDOF 1
ENDMDL
