MODEL 1
REMARK minimizedAffinity -4.97447443
REMARK minimizedRMSD -1
REMARK  1 active torsions:
REMARK  status: ('A' for Active; 'I' for Inactive)
REMARK    1  A    between atoms: C1_2  and  C2_3 
ROOT
ATOM      1  C2  UNL d   1       0.107  -1.074  -0.735  0.00  0.00    -0.077 A 
ATOM      2  C3  UNL d   1       0.754   0.148  -0.964  0.00  0.00     0.002 A 
ATOM      3  C4  UNL d   1       0.323   1.307  -0.316  0.00  0.00     0.002 A 
ATOM      4  C5  UNL d   1      -0.753   1.255   0.568  0.00  0.00    -0.004 A 
ATOM      5  C6  UNL d   1      -1.405   0.044   0.800  0.00  0.00     0.002 A 
ATOM      6  C7  UNL d   1      -0.976  -1.115   0.153  0.00  0.00     0.002 A 
ENDROOT
BRANCH   1   7
ATOM      7  C1  UNL d   1       0.601  -2.335  -1.395  0.00  0.00     0.055 C 
ATOM      8  C   UNL d   1       0.309  -2.329  -2.889  0.00  0.00     0.019 C 
ENDBRANCH   1   7
TORSDOF 1
ENDMDL
