MODEL 1
REMARK minimizedAffinity 7.4480176
REMARK minimizedRMSD -1
REMARK  0 active torsions:
REMARK  status: ('A' for Active; 'I' for Inactive)
ROOT
ATOM      1  C   UNL d   1      -0.782  -3.814   0.298  0.00  0.00     0.172 C 
ATOM      2  N   UNL d   1      -1.370  -2.672  -0.362  0.00  0.00    -0.070 N 
ATOM      3  C1  UNL d   1      -1.084  -2.249  -1.633  0.00  0.00    -0.004 A 
ATOM      4  C2  UNL d   1      -1.851  -1.133  -1.889  0.00  0.00    -0.047 A 
ATOM      5  C3  UNL d   1      -2.625  -0.877  -0.733  0.00  0.00    -0.047 A 
ATOM      6  C4  UNL d   1      -2.308  -1.844   0.197  0.00  0.00    -0.004 A 
ENDROOT
TORSDOF 0
ENDMDL
