MODEL 1
REMARK minimizedAffinity 11.3376398
REMARK minimizedRMSD -1
REMARK  0 active torsions:
REMARK  status: ('A' for Active; 'I' for Inactive)
ROOT
ATOM      1  C   UNL d   1      -3.062   3.241  -4.424  0.00  0.00     0.172 C 
ATOM      2  N   UNL d   1      -1.725   2.731  -4.233  0.00  0.00    -0.070 N 
ATOM      3  C1  UNL d   1      -0.594   3.207  -4.841  0.00  0.00    -0.004 A 
ATOM      4  C2  UNL d   1       0.473   2.456  -4.396  0.00  0.00    -0.047 A 
ATOM      5  C3  UNL d   1      -0.035   1.495  -3.490  0.00  0.00    -0.047 A 
ATOM      6  C4  UNL d   1      -1.398   1.687  -3.407  0.00  0.00    -0.004 A 
ENDROOT
TORSDOF 0
ENDMDL
