MODEL 1
REMARK minimizedAffinity 5.3054266
REMARK minimizedRMSD -1
REMARK  0 active torsions:
REMARK  status: ('A' for Active; 'I' for Inactive)
ROOT
ATOM      1  C   UNL d   1      -1.180  -2.399  -0.763  0.00  0.00     0.172 C 
ATOM      2  N   UNL d   1      -0.892  -3.768  -0.404  0.00  0.00    -0.070 N 
ATOM      3  C1  UNL d   1      -0.577  -4.215   0.851  0.00  0.00    -0.004 A 
ATOM      4  C2  UNL d   1      -0.375  -5.576   0.776  0.00  0.00    -0.047 A 
ATOM      5  C3  UNL d   1      -0.574  -5.960  -0.572  0.00  0.00    -0.047 A 
ATOM      6  C4  UNL d   1      -0.893  -4.821  -1.280  0.00  0.00    -0.004 A 
ENDROOT
TORSDOF 0
ENDMDL
