MODEL 1
REMARK minimizedAffinity 4.34198666
REMARK minimizedRMSD -1
REMARK  0 active torsions:
REMARK  status: ('A' for Active; 'I' for Inactive)
ROOT
ATOM      1  C   UNL d   1       5.069   5.114   0.403  0.00  0.00     0.172 C 
ATOM      2  N   UNL d   1       4.463   3.864   0.801  0.00  0.00    -0.070 N 
ATOM      3  C1  UNL d   1       3.805   2.996  -0.029  0.00  0.00    -0.004 A 
ATOM      4  C2  UNL d   1       3.378   1.928   0.730  0.00  0.00    -0.047 A 
ATOM      5  C3  UNL d   1       3.793   2.163   2.062  0.00  0.00    -0.047 A 
ATOM      6  C4  UNL d   1       4.463   3.368   2.078  0.00  0.00    -0.004 A 
ENDROOT
TORSDOF 0
ENDMDL
