MODEL 1
REMARK minimizedAffinity 12.8607445
REMARK minimizedRMSD -1
REMARK  0 active torsions:
REMARK  status: ('A' for Active; 'I' for Inactive)
ROOT
ATOM      1  C   UNL d   1      -2.936   3.351  -4.530  0.00  0.00     0.172 C 
ATOM      2  N   UNL d   1      -4.055   4.211  -4.837  0.00  0.00    -0.070 N 
ATOM      3  C1  UNL d   1      -5.151   3.860  -5.579  0.00  0.00    -0.004 A 
ATOM      4  C2  UNL d   1      -5.987   4.955  -5.641  0.00  0.00    -0.047 A 
ATOM      5  C3  UNL d   1      -5.371   5.999  -4.911  0.00  0.00    -0.047 A 
ATOM      6  C4  UNL d   1      -4.177   5.512  -4.424  0.00  0.00    -0.004 A 
ENDROOT
TORSDOF 0
ENDMDL
