MODEL 1
REMARK minimizedAffinity 11.456172
REMARK minimizedRMSD -1
REMARK  0 active torsions:
REMARK  status: ('A' for Active; 'I' for Inactive)
ROOT
ATOM      1  C   UNL d   1       4.728   5.078   0.077  0.00  0.00     0.172 C 
ATOM      2  N   UNL d   1       4.072   3.834   0.406  0.00  0.00    -0.070 N 
ATOM      3  C1  UNL d   1       3.870   3.349   1.670  0.00  0.00    -0.004 A 
ATOM      4  C2  UNL d   1       3.212   2.143   1.559  0.00  0.00    -0.047 A 
ATOM      5  C3  UNL d   1       3.014   1.894   0.180  0.00  0.00    -0.047 A 
ATOM      6  C4  UNL d   1       3.556   2.957  -0.511  0.00  0.00    -0.004 A 
ENDROOT
TORSDOF 0
ENDMDL
