MODEL 1
REMARK minimizedAffinity 7.19767523
REMARK minimizedRMSD -1
REMARK  0 active torsions:
REMARK  status: ('A' for Active; 'I' for Inactive)
ROOT
ATOM      1  C   UNL d   1       0.556  -0.067  -3.653  0.00  0.00     0.172 C 
ATOM      2  N   UNL d   1      -0.199   1.128  -3.950  0.00  0.00    -0.070 N 
ATOM      3  C1  UNL d   1       0.316   2.295  -4.447  0.00  0.00    -0.004 A 
ATOM      4  C2  UNL d   1      -0.724   3.188  -4.591  0.00  0.00    -0.047 A 
ATOM      5  C3  UNL d   1      -1.905   2.535  -4.164  0.00  0.00    -0.047 A 
ATOM      6  C4  UNL d   1      -1.551   1.261  -3.772  0.00  0.00    -0.004 A 
ENDROOT
TORSDOF 0
ENDMDL
