MODEL 1
REMARK minimizedAffinity 9.10589886
REMARK minimizedRMSD -1
REMARK  0 active torsions:
REMARK  status: ('A' for Active; 'I' for Inactive)
ROOT
ATOM      1  C   UNL d   1      -4.659   3.913   5.968  0.00  0.00     0.172 C 
ATOM      2  N   UNL d   1      -4.726   2.470   5.980  0.00  0.00    -0.070 N 
ATOM      3  C1  UNL d   1      -5.874   1.724   5.988  0.00  0.00    -0.004 A 
ATOM      4  C2  UNL d   1      -5.513   0.394   5.998  0.00  0.00    -0.047 A 
ATOM      5  C3  UNL d   1      -4.099   0.339   5.998  0.00  0.00    -0.047 A 
ATOM      6  C4  UNL d   1      -3.637   1.639   5.986  0.00  0.00    -0.004 A 
ENDROOT
TORSDOF 0
ENDMDL
