MODEL 1
REMARK minimizedAffinity 9.89451122
REMARK minimizedRMSD -1
REMARK  0 active torsions:
REMARK  status: ('A' for Active; 'I' for Inactive)
ROOT
ATOM      1  C   UNL d   1      -0.815  -3.989   0.345  0.00  0.00     0.172 C 
ATOM      2  N   UNL d   1      -1.438  -2.849  -0.285  0.00  0.00    -0.070 N 
ATOM      3  C1  UNL d   1      -1.082  -2.311  -1.493  0.00  0.00    -0.004 A 
ATOM      4  C2  UNL d   1      -1.914  -1.240  -1.739  0.00  0.00    -0.047 A 
ATOM      5  C3  UNL d   1      -2.800  -1.131  -0.642  0.00  0.00    -0.047 A 
ATOM      6  C4  UNL d   1      -2.484  -2.139   0.244  0.00  0.00    -0.004 A 
ENDROOT
TORSDOF 0
ENDMDL
