MODEL 1
REMARK minimizedAffinity 3.59467077
REMARK minimizedRMSD -1
REMARK  0 active torsions:
REMARK  status: ('A' for Active; 'I' for Inactive)
ROOT
ATOM      1  C   UNL d   1      -0.616  -5.337   0.452  0.00  0.00     0.172 C 
ATOM      2  N   UNL d   1      -1.147  -3.995   0.500  0.00  0.00    -0.070 N 
ATOM      3  C1  UNL d   1      -0.847  -2.987  -0.376  0.00  0.00    -0.004 A 
ATOM      4  C2  UNL d   1      -1.555  -1.869   0.009  0.00  0.00    -0.047 A 
ATOM      5  C3  UNL d   1      -2.306  -2.217   1.156  0.00  0.00    -0.047 A 
ATOM      6  C4  UNL d   1      -2.035  -3.540   1.439  0.00  0.00    -0.004 A 
ENDROOT
TORSDOF 0
ENDMDL
