MODEL 1
REMARK minimizedAffinity -1.24553287
REMARK minimizedRMSD -1
REMARK  0 active torsions:
REMARK  status: ('A' for Active; 'I' for Inactive)
ROOT
ATOM      1  C   UNL d   1      -3.377   3.719  -6.000  0.00  0.00     0.172 C 
ATOM      2  N   UNL d   1      -2.089   3.374  -5.446  0.00  0.00    -0.070 N 
ATOM      3  C1  UNL d   1      -1.879   2.627  -4.318  0.00  0.00    -0.004 A 
ATOM      4  C2  UNL d   1      -0.518   2.525  -4.127  0.00  0.00    -0.047 A 
ATOM      5  C3  UNL d   1       0.112   3.237  -5.175  0.00  0.00    -0.047 A 
ATOM      6  C4  UNL d   1      -0.884   3.752  -5.977  0.00  0.00    -0.004 A 
ENDROOT
TORSDOF 0
ENDMDL
