MODEL 1
REMARK minimizedAffinity 8.34061241
REMARK minimizedRMSD -1
REMARK  0 active torsions:
REMARK  status: ('A' for Active; 'I' for Inactive)
ROOT
ATOM      1  C   UNL d   1       4.621   5.254  -0.463  0.00  0.00     0.172 C 
ATOM      2  N   UNL d   1       3.900   4.019  -0.265  0.00  0.00    -0.070 N 
ATOM      3  C1  UNL d   1       3.643   3.429   0.943  0.00  0.00    -0.004 A 
ATOM      4  C2  UNL d   1       2.933   2.272   0.705  0.00  0.00    -0.047 A 
ATOM      5  C3  UNL d   1       2.759   2.162  -0.695  0.00  0.00    -0.047 A 
ATOM      6  C4  UNL d   1       3.367   3.256  -1.271  0.00  0.00    -0.004 A 
ENDROOT
TORSDOF 0
ENDMDL
