MODEL 1
REMARK minimizedAffinity 0.185975596
REMARK minimizedRMSD -1
REMARK  0 active torsions:
REMARK  status: ('A' for Active; 'I' for Inactive)
ROOT
ATOM      1  C   UNL d   1      -0.022  -5.970   0.023  0.00  0.00     0.172 C 
ATOM      2  N   UNL d   1       0.258  -5.982   1.440  0.00  0.00    -0.070 N 
ATOM      3  C1  UNL d   1       1.504  -5.987   2.007  0.00  0.00    -0.004 A 
ATOM      4  C2  UNL d   1       1.344  -5.998   3.376  0.00  0.00    -0.047 A 
ATOM      5  C3  UNL d   1      -0.046  -6.000   3.640  0.00  0.00    -0.047 A 
ATOM      6  C4  UNL d   1      -0.695  -5.990   2.424  0.00  0.00    -0.004 A 
ENDROOT
TORSDOF 0
ENDMDL
