MODEL 1
REMARK minimizedAffinity 0.712221801
REMARK minimizedRMSD -1
REMARK  0 active torsions:
REMARK  status: ('A' for Active; 'I' for Inactive)
ROOT
ATOM      1  C   UNL d   1       0.005  -4.488   0.742  0.00  0.00     0.172 C 
ATOM      2  N   UNL d   1       0.349  -5.099   2.004  0.00  0.00    -0.070 N 
ATOM      3  C1  UNL d   1       1.611  -5.447   2.405  0.00  0.00    -0.004 A 
ATOM      4  C2  UNL d   1       1.516  -5.999   3.664  0.00  0.00    -0.047 A 
ATOM      5  C3  UNL d   1       0.150  -5.983   4.032  0.00  0.00    -0.047 A 
ATOM      6  C4  UNL d   1      -0.551  -5.421   2.986  0.00  0.00    -0.004 A 
ENDROOT
TORSDOF 0
ENDMDL
