MODEL 1
REMARK minimizedAffinity 11.3854599
REMARK minimizedRMSD -1
REMARK  0 active torsions:
REMARK  status: ('A' for Active; 'I' for Inactive)
ROOT
ATOM      1  C   UNL d   1      -2.625   2.692  -3.739  0.00  0.00     0.172 C 
ATOM      2  N   UNL d   1      -1.345   2.768  -4.403  0.00  0.00    -0.070 N 
ATOM      3  C1  UNL d   1      -0.123   2.624  -3.801  0.00  0.00    -0.004 A 
ATOM      4  C2  UNL d   1       0.845   2.763  -4.772  0.00  0.00    -0.047 A 
ATOM      5  C3  UNL d   1       0.183   3.000  -6.000  0.00  0.00    -0.047 A 
ATOM      6  C4  UNL d   1      -1.172   2.998  -5.743  0.00  0.00    -0.004 A 
ENDROOT
TORSDOF 0
ENDMDL
