MODEL 1
REMARK minimizedAffinity 8.03745556
REMARK minimizedRMSD -1
REMARK  0 active torsions:
REMARK  status: ('A' for Active; 'I' for Inactive)
ROOT
ATOM      1  C   UNL d   1      -1.476  -2.566   0.246  0.00  0.00     0.172 C 
ATOM      2  N   UNL d   1      -1.135  -3.869   0.765  0.00  0.00    -0.070 N 
ATOM      3  C1  UNL d   1      -1.142  -4.230   2.086  0.00  0.00    -0.004 A 
ATOM      4  C2  UNL d   1      -0.758  -5.551   2.165  0.00  0.00    -0.047 A 
ATOM      5  C3  UNL d   1      -0.511  -6.000   0.846  0.00  0.00    -0.047 A 
ATOM      6  C4  UNL d   1      -0.752  -4.939  -0.001  0.00  0.00    -0.004 A 
ENDROOT
TORSDOF 0
ENDMDL
