MODEL 1
REMARK minimizedAffinity 4.74501324
REMARK minimizedRMSD -1
REMARK  0 active torsions:
REMARK  status: ('A' for Active; 'I' for Inactive)
ROOT
ATOM      1  C   UNL d   1      -2.856  -2.851   3.183  0.00  0.00     0.172 C 
ATOM      2  N   UNL d   1      -2.248  -2.817   1.873  0.00  0.00    -0.070 N 
ATOM      3  C1  UNL d   1      -1.323  -3.708   1.399  0.00  0.00    -0.004 A 
ATOM      4  C2  UNL d   1      -0.995  -3.333   0.114  0.00  0.00    -0.047 A 
ATOM      5  C3  UNL d   1      -1.748  -2.176  -0.194  0.00  0.00    -0.047 A 
ATOM      6  C4  UNL d   1      -2.516  -1.878   0.912  0.00  0.00    -0.004 A 
ENDROOT
TORSDOF 0
ENDMDL
