MODEL 1
REMARK minimizedAffinity 6.06289577
REMARK minimizedRMSD -1
REMARK  0 active torsions:
REMARK  status: ('A' for Active; 'I' for Inactive)
ROOT
ATOM      1  C   UNL d   1      -2.584  -2.912   3.268  0.00  0.00     0.172 C 
ATOM      2  N   UNL d   1      -2.042  -3.004   1.933  0.00  0.00    -0.070 N 
ATOM      3  C1  UNL d   1      -1.074  -3.881   1.523  0.00  0.00    -0.004 A 
ATOM      4  C2  UNL d   1      -0.836  -3.652   0.185  0.00  0.00    -0.047 A 
ATOM      5  C3  UNL d   1      -1.690  -2.600  -0.223  0.00  0.00    -0.047 A 
ATOM      6  C4  UNL d   1      -2.425  -2.217   0.879  0.00  0.00    -0.004 A 
ENDROOT
TORSDOF 0
ENDMDL
