MODEL 1
REMARK minimizedAffinity 9.18083286
REMARK minimizedRMSD -1
REMARK  1 active torsions:
REMARK  status: ('A' for Active; 'I' for Inactive)
REMARK    1  A    between atoms: N_2  and  C1_3 
ROOT
ATOM      1  C1  UNL d   1       1.440  -3.082   1.232  0.00  0.00     0.143 A 
ATOM      2  C2  UNL d   1       1.875  -4.356   1.613  0.00  0.00    -0.057 A 
ATOM      3  C3  UNL d   1       0.966  -5.400   1.822  0.00  0.00     0.033 A 
ATOM      4  C4  UNL d   1      -0.400  -5.180   1.681  0.00  0.00    -0.042 A 
ATOM      5  C5  UNL d   1      -0.856  -3.915   1.327  0.00  0.00     0.033 A 
ATOM      6  C6  UNL d   1       0.057  -2.878   1.113  0.00  0.00    -0.057 A 
ENDROOT
BRANCH   1   7
ATOM      7  N   UNL d   1       2.287  -1.977   1.105  0.00  0.00    -0.732 N 
ATOM      8  C   UNL d   1       1.840  -0.658   1.497  0.00  0.00     0.284 C 
ATOM      9  H3  UNL d   1       3.245  -2.189   1.374  0.00  0.00     0.395 HD
ENDBRANCH   1   7
TORSDOF 1
ENDMDL
