MODEL 1
REMARK minimizedAffinity 6.27290869
REMARK minimizedRMSD -1
REMARK  1 active torsions:
REMARK  status: ('A' for Active; 'I' for Inactive)
REMARK    1  A    between atoms: N_2  and  C1_3 
ROOT
ATOM      1  C1  UNL d   1       3.435  -4.239  -5.859  0.00  0.00     0.143 A 
ATOM      2  C2  UNL d   1       3.061  -5.580  -5.999  0.00  0.00    -0.057 A 
ATOM      3  C3  UNL d   1       1.750  -5.999  -5.746  0.00  0.00     0.033 A 
ATOM      4  C4  UNL d   1       0.792  -5.085  -5.318  0.00  0.00    -0.042 A 
ATOM      5  C5  UNL d   1       1.147  -3.752  -5.147  0.00  0.00     0.033 A 
ATOM      6  C6  UNL d   1       2.457  -3.339  -5.408  0.00  0.00    -0.057 A 
ENDROOT
BRANCH   1   7
ATOM      7  N   UNL d   1       4.746  -3.779  -6.000  0.00  0.00    -0.732 N 
ATOM      8  C   UNL d   1       5.859  -4.704  -5.982  0.00  0.00     0.284 C 
ATOM      9  H3  UNL d   1       4.827  -3.045  -6.700  0.00  0.00     0.395 HD
ENDBRANCH   1   7
TORSDOF 1
ENDMDL
