MODEL 1
REMARK minimizedAffinity 17.220665
REMARK minimizedRMSD -1
REMARK  1 active torsions:
REMARK  status: ('A' for Active; 'I' for Inactive)
REMARK    1  A    between atoms: N_2  and  C1_3 
ROOT
ATOM      1  C1  UNL d   1       1.436   1.856   0.566  0.00  0.00     0.143 A 
ATOM      2  C2  UNL d   1       0.860   0.668   1.026  0.00  0.00    -0.057 A 
ATOM      3  C3  UNL d   1       1.617  -0.288   1.714  0.00  0.00     0.033 A 
ATOM      4  C4  UNL d   1       2.976  -0.084   1.929  0.00  0.00    -0.042 A 
ATOM      5  C5  UNL d   1       3.576   1.079   1.458  0.00  0.00     0.033 A 
ATOM      6  C6  UNL d   1       2.813   2.032   0.778  0.00  0.00    -0.057 A 
ENDROOT
BRANCH   1   7
ATOM      7  N   UNL d   1       0.759   2.800  -0.210  0.00  0.00    -0.732 N 
ATOM      8  C   UNL d   1       0.436   2.522  -1.594  0.00  0.00     0.284 C 
ATOM      9  H3  UNL d   1       0.015   3.264   0.305  0.00  0.00     0.395 HD
ENDBRANCH   1   7
TORSDOF 1
ENDMDL
