MODEL 1
REMARK minimizedAffinity 13.0994682
REMARK minimizedRMSD -1
REMARK  1 active torsions:
REMARK  status: ('A' for Active; 'I' for Inactive)
REMARK    1  A    between atoms: N_2  and  C1_3 
ROOT
ATOM      1  C1  UNL d   1      -2.629   3.973  -2.892  0.00  0.00     0.143 A 
ATOM      2  C2  UNL d   1      -2.684   3.287  -4.110  0.00  0.00    -0.057 A 
ATOM      3  C3  UNL d   1      -2.355   3.919  -5.316  0.00  0.00     0.033 A 
ATOM      4  C4  UNL d   1      -1.992   5.262  -5.327  0.00  0.00    -0.042 A 
ATOM      5  C5  UNL d   1      -1.955   5.971  -4.132  0.00  0.00     0.033 A 
ATOM      6  C6  UNL d   1      -2.278   5.332  -2.931  0.00  0.00    -0.057 A 
ENDROOT
BRANCH   1   7
ATOM      7  N   UNL d   1      -3.038   3.428  -1.673  0.00  0.00    -0.732 N 
ATOM      8  C   UNL d   1      -4.317   3.787  -1.097  0.00  0.00     0.284 C 
ATOM      9  H3  UNL d   1      -2.809   2.440  -1.593  0.00  0.00     0.395 HD
ENDBRANCH   1   7
TORSDOF 1
ENDMDL
