MODEL 1
REMARK minimizedAffinity -0.57232666
REMARK minimizedRMSD -1
REMARK  1 active torsions:
REMARK  status: ('A' for Active; 'I' for Inactive)
REMARK    1  A    between atoms: N_2  and  C1_3 
ROOT
ATOM      1  C1  UNL d   1      -5.045  -4.896   0.097  0.00  0.00     0.143 A 
ATOM      2  C2  UNL d   1      -5.491  -6.000   0.832  0.00  0.00    -0.057 A 
ATOM      3  C3  UNL d   1      -5.555  -5.962   2.230  0.00  0.00     0.033 A 
ATOM      4  C4  UNL d   1      -5.146  -4.827   2.921  0.00  0.00    -0.042 A 
ATOM      5  C5  UNL d   1      -4.676  -3.727   2.212  0.00  0.00     0.033 A 
ATOM      6  C6  UNL d   1      -4.620  -3.768   0.816  0.00  0.00    -0.057 A 
ENDROOT
BRANCH   1   7
ATOM      7  N   UNL d   1      -4.866  -4.906  -1.289  0.00  0.00    -0.732 N 
ATOM      8  C   UNL d   1      -5.439  -5.959  -2.099  0.00  0.00     0.284 C 
ATOM      9  H3  UNL d   1      -4.944  -3.978  -1.697  0.00  0.00     0.395 HD
ENDBRANCH   1   7
TORSDOF 1
ENDMDL
