MODEL 1
REMARK minimizedAffinity 12.8388691
REMARK minimizedRMSD -1
REMARK  1 active torsions:
REMARK  status: ('A' for Active; 'I' for Inactive)
REMARK    1  A    between atoms: N_2  and  C1_3 
ROOT
ATOM      1  C1  UNL d   1       1.654  -2.850   0.554  0.00  0.00     0.143 A 
ATOM      2  C2  UNL d   1       2.814  -2.140   0.228  0.00  0.00    -0.057 A 
ATOM      3  C3  UNL d   1       2.997  -0.816   0.647  0.00  0.00     0.033 A 
ATOM      4  C4  UNL d   1       2.007  -0.168   1.377  0.00  0.00    -0.042 A 
ATOM      5  C5  UNL d   1       0.834  -0.846   1.690  0.00  0.00     0.033 A 
ATOM      6  C6  UNL d   1       0.660  -2.169   1.275  0.00  0.00    -0.057 A 
ENDROOT
BRANCH   1   7
ATOM      7  N   UNL d   1       1.370  -4.134   0.084  0.00  0.00    -0.732 N 
ATOM      8  C   UNL d   1       0.871  -4.334  -1.260  0.00  0.00     0.284 C 
ATOM      9  H3  UNL d   1       2.066  -4.817   0.375  0.00  0.00     0.395 HD
ENDBRANCH   1   7
TORSDOF 1
ENDMDL
