MODEL 1
REMARK minimizedAffinity 9.03822899
REMARK minimizedRMSD -1
REMARK  1 active torsions:
REMARK  status: ('A' for Active; 'I' for Inactive)
REMARK    1  A    between atoms: N_2  and  C1_3 
ROOT
ATOM      1  C1  UNL d   1      -2.567   4.644  -2.956  0.00  0.00     0.143 A 
ATOM      2  C2  UNL d   1      -2.478   3.405  -3.601  0.00  0.00    -0.057 A 
ATOM      3  C3  UNL d   1      -2.105   3.312  -4.947  0.00  0.00     0.033 A 
ATOM      4  C4  UNL d   1      -1.842   4.463  -5.683  0.00  0.00    -0.042 A 
ATOM      5  C5  UNL d   1      -1.949   5.706  -5.070  0.00  0.00     0.033 A 
ATOM      6  C6  UNL d   1      -2.315   5.792  -3.723  0.00  0.00    -0.057 A 
ENDROOT
BRANCH   1   7
ATOM      7  N   UNL d   1      -3.028   4.808  -1.648  0.00  0.00    -0.732 N 
ATOM      8  C   UNL d   1      -4.321   4.292  -1.251  0.00  0.00     0.284 C 
ATOM      9  H3  UNL d   1      -2.294   4.667  -0.957  0.00  0.00     0.395 HD
ENDBRANCH   1   7
TORSDOF 1
ENDMDL
