MODEL 1
REMARK minimizedAffinity 6.08119869
REMARK minimizedRMSD -1
REMARK  1 active torsions:
REMARK  status: ('A' for Active; 'I' for Inactive)
REMARK    1  A    between atoms: N_2  and  C1_3 
ROOT
ATOM      1  C1  UNL d   1      -1.445  -2.160   2.665  0.00  0.00     0.143 A 
ATOM      2  C2  UNL d   1      -0.911  -1.030   3.295  0.00  0.00    -0.057 A 
ATOM      3  C3  UNL d   1       0.396  -0.603   3.034  0.00  0.00     0.033 A 
ATOM      4  C4  UNL d   1       1.206  -1.318   2.158  0.00  0.00    -0.042 A 
ATOM      5  C5  UNL d   1       0.706  -2.459   1.540  0.00  0.00     0.033 A 
ATOM      6  C6  UNL d   1      -0.604  -2.876   1.799  0.00  0.00    -0.057 A 
ENDROOT
BRANCH   1   7
ATOM      7  N   UNL d   1      -2.703  -2.691   2.956  0.00  0.00    -0.732 N 
ATOM      8  C   UNL d   1      -3.478  -3.357   1.931  0.00  0.00     0.284 C 
ATOM      9  H3  UNL d   1      -2.730  -3.153   3.863  0.00  0.00     0.395 HD
ENDBRANCH   1   7
TORSDOF 1
ENDMDL
