MODEL 1
REMARK minimizedAffinity 1.61240375
REMARK minimizedRMSD -1
REMARK  1 active torsions:
REMARK  status: ('A' for Active; 'I' for Inactive)
REMARK    1  A    between atoms: N_2  and  C1_3 
ROOT
ATOM      1  C1  UNL d   1      -3.929  -5.348   0.301  0.00  0.00     0.143 A 
ATOM      2  C2  UNL d   1      -4.907  -6.000   1.059  0.00  0.00    -0.057 A 
ATOM      3  C3  UNL d   1      -5.242  -5.559   2.345  0.00  0.00     0.033 A 
ATOM      4  C4  UNL d   1      -4.581  -4.472   2.908  0.00  0.00    -0.042 A 
ATOM      5  C5  UNL d   1      -3.588  -3.824   2.182  0.00  0.00     0.033 A 
ATOM      6  C6  UNL d   1      -3.263  -4.265   0.896  0.00  0.00    -0.057 A 
ENDROOT
BRANCH   1   7
ATOM      7  N   UNL d   1      -3.482  -5.798  -0.944  0.00  0.00    -0.732 N 
ATOM      8  C   UNL d   1      -4.411  -5.986  -2.037  0.00  0.00     0.284 C 
ATOM      9  H3  UNL d   1      -2.599  -5.372  -1.217  0.00  0.00     0.395 HD
ENDBRANCH   1   7
TORSDOF 1
ENDMDL
