MODEL 1
REMARK minimizedAffinity 7.71180439
REMARK minimizedRMSD -1
REMARK  1 active torsions:
REMARK  status: ('A' for Active; 'I' for Inactive)
REMARK    1  A    between atoms: N_2  and  C1_3 
ROOT
ATOM      1  C1  UNL d   1      -5.227  -4.271   4.640  0.00  0.00     0.143 A 
ATOM      2  C2  UNL d   1      -5.999  -5.364   4.232  0.00  0.00    -0.057 A 
ATOM      3  C3  UNL d   1      -5.896  -5.882   2.935  0.00  0.00     0.033 A 
ATOM      4  C4  UNL d   1      -5.036  -5.296   2.012  0.00  0.00    -0.042 A 
ATOM      5  C5  UNL d   1      -4.277  -4.193   2.389  0.00  0.00     0.033 A 
ATOM      6  C6  UNL d   1      -4.380  -3.685   3.687  0.00  0.00    -0.057 A 
ENDROOT
BRANCH   1   7
ATOM      7  N   UNL d   1      -5.356  -3.649   5.884  0.00  0.00    -0.732 N 
ATOM      8  C   UNL d   1      -6.000  -2.357   5.999  0.00  0.00     0.284 C 
ATOM      9  H3  UNL d   1      -5.604  -4.304   6.622  0.00  0.00     0.395 HD
ENDBRANCH   1   7
TORSDOF 1
ENDMDL
