MODEL 1
REMARK minimizedAffinity 9.91511536
REMARK minimizedRMSD -1
REMARK  1 active torsions:
REMARK  status: ('A' for Active; 'I' for Inactive)
REMARK    1  A    between atoms: N_2  and  C1_3 
ROOT
ATOM      1  C1  UNL d   1      -2.500   3.827  -3.539  0.00  0.00     0.143 A 
ATOM      2  C2  UNL d   1      -2.395   5.117  -3.009  0.00  0.00    -0.057 A 
ATOM      3  C3  UNL d   1      -3.133   5.503  -1.884  0.00  0.00     0.033 A 
ATOM      4  C4  UNL d   1      -4.015   4.610  -1.284  0.00  0.00    -0.042 A 
ATOM      5  C5  UNL d   1      -4.154   3.330  -1.808  0.00  0.00     0.033 A 
ATOM      6  C6  UNL d   1      -3.409   2.949  -2.928  0.00  0.00    -0.057 A 
ENDROOT
BRANCH   1   7
ATOM      7  N   UNL d   1      -1.866   3.414  -4.713  0.00  0.00    -0.732 N 
ATOM      8  C   UNL d   1      -2.252   3.969  -5.993  0.00  0.00     0.284 C 
ATOM      9  H3  UNL d   1      -0.862   3.302  -4.595  0.00  0.00     0.395 HD
ENDBRANCH   1   7
TORSDOF 1
ENDMDL
