MODEL 1
REMARK minimizedAffinity 9.36559963
REMARK minimizedRMSD -1
REMARK  1 active torsions:
REMARK  status: ('A' for Active; 'I' for Inactive)
REMARK    1  A    between atoms: N_2  and  C1_3 
ROOT
ATOM      1  C1  UNL d   1       3.938  -4.991  -5.832  0.00  0.00     0.143 A 
ATOM      2  C2  UNL d   1       3.559  -3.654  -5.671  0.00  0.00    -0.057 A 
ATOM      3  C3  UNL d   1       2.211  -3.282  -5.623  0.00  0.00     0.033 A 
ATOM      4  C4  UNL d   1       1.213  -4.240  -5.766  0.00  0.00    -0.042 A 
ATOM      5  C5  UNL d   1       1.566  -5.572  -5.953  0.00  0.00     0.033 A 
ATOM      6  C6  UNL d   1       2.914  -5.939  -5.992  0.00  0.00    -0.057 A 
ENDROOT
BRANCH   1   7
ATOM      7  N   UNL d   1       5.261  -5.412  -5.986  0.00  0.00    -0.732 N 
ATOM      8  C   UNL d   1       5.986  -5.986  -4.872  0.00  0.00     0.284 C 
ATOM      9  H3  UNL d   1       5.417  -5.887  -6.872  0.00  0.00     0.395 HD
ENDBRANCH   1   7
TORSDOF 1
ENDMDL
