MODEL 1
REMARK minimizedAffinity 3.17180753
REMARK minimizedRMSD -1
REMARK  1 active torsions:
REMARK  status: ('A' for Active; 'I' for Inactive)
REMARK    1  A    between atoms: N_2  and  C1_3 
ROOT
ATOM      1  C1  UNL d   1       1.506  -4.614  -4.709  0.00  0.00     0.143 A 
ATOM      2  C2  UNL d   1       1.924  -5.778  -5.363  0.00  0.00    -0.057 A 
ATOM      3  C3  UNL d   1       3.174  -5.850  -5.990  0.00  0.00     0.033 A 
ATOM      4  C4  UNL d   1       4.018  -4.745  -6.000  0.00  0.00    -0.042 A 
ATOM      5  C5  UNL d   1       3.613  -3.569  -5.378  0.00  0.00     0.033 A 
ATOM      6  C6  UNL d   1       2.367  -3.506  -4.748  0.00  0.00    -0.057 A 
ENDROOT
BRANCH   1   7
ATOM      7  N   UNL d   1       0.235  -4.448  -4.153  0.00  0.00    -0.732 N 
ATOM      8  C   UNL d   1      -0.049  -3.324  -3.287  0.00  0.00     0.284 C 
ATOM      9  H3  UNL d   1      -0.509  -4.663  -4.812  0.00  0.00     0.395 HD
ENDBRANCH   1   7
TORSDOF 1
ENDMDL
