MODEL 1
REMARK minimizedAffinity -1.74662638
REMARK minimizedRMSD -1
REMARK  2 active torsions:
REMARK  status: ('A' for Active; 'I' for Inactive)
REMARK    1  A    between atoms: C1_2  and  C2_3 
REMARK    2  A    between atoms: C2_3  and  C3_4 
ROOT
ATOM      1  C3  UNL d   1       1.777   1.109   0.453  0.00  0.00    -0.075 A 
ATOM      2  C4  UNL d   1       2.104   1.005   1.813  0.00  0.00     0.002 A 
ATOM      3  C5  UNL d   1       2.813   2.023   2.452  0.00  0.00     0.002 A 
ATOM      4  C6  UNL d   1       3.211   3.151   1.738  0.00  0.00    -0.004 A 
ATOM      5  C7  UNL d   1       2.906   3.258   0.383  0.00  0.00     0.002 A 
ATOM      6  C8  UNL d   1       2.194   2.243  -0.257  0.00  0.00     0.002 A 
ENDROOT
BRANCH   1   7
ATOM      7  C2  UNL d   1       0.985   0.024  -0.236  0.00  0.00     0.056 C 
BRANCH   7   8
ATOM      8  C1  UNL d   1      -0.528   0.264  -0.240  0.00  0.00     0.007 C 
ATOM      9  C   UNL d   1      -1.179  -0.033  -1.585  0.00  0.00     0.009 C 
ENDBRANCH   7   8
ENDBRANCH   1   7
TORSDOF 2
ENDMDL
