MODEL 1
REMARK minimizedAffinity -4.33784199
REMARK minimizedRMSD -1
REMARK  2 active torsions:
REMARK  status: ('A' for Active; 'I' for Inactive)
REMARK    1  A    between atoms: C1_2  and  C2_3 
REMARK    2  A    between atoms: C2_3  and  C3_4 
ROOT
ATOM      1  C3  UNL d   1      -1.315  -0.674   0.227  0.00  0.00    -0.075 A 
ATOM      2  C4  UNL d   1      -2.405  -0.986  -0.598  0.00  0.00     0.002 A 
ATOM      3  C5  UNL d   1      -3.068  -2.207  -0.465  0.00  0.00     0.002 A 
ATOM      4  C6  UNL d   1      -2.644  -3.133   0.485  0.00  0.00    -0.004 A 
ATOM      5  C7  UNL d   1      -1.552  -2.841   1.299  0.00  0.00     0.002 A 
ATOM      6  C8  UNL d   1      -0.890  -1.618   1.171  0.00  0.00     0.002 A 
ENDROOT
BRANCH   1   7
ATOM      7  C2  UNL d   1      -0.612   0.657   0.109  0.00  0.00     0.056 C 
BRANCH   7   8
ATOM      8  C1  UNL d   1       0.777   0.688   0.755  0.00  0.00     0.007 C 
ATOM      9  C   UNL d   1       1.849   0.016  -0.093  0.00  0.00     0.009 C 
ENDBRANCH   7   8
ENDBRANCH   1   7
TORSDOF 2
ENDMDL
