MODEL 1
REMARK minimizedAffinity -4.55393982
REMARK minimizedRMSD -1
REMARK  2 active torsions:
REMARK  status: ('A' for Active; 'I' for Inactive)
REMARK    1  A    between atoms: C1_2  and  C2_3 
REMARK    2  A    between atoms: C2_3  and  C3_4 
ROOT
ATOM      1  C3  UNL d   1       0.087   0.677  -0.206  0.00  0.00    -0.075 A 
ATOM      2  C4  UNL d   1      -0.854  -0.357  -0.096  0.00  0.00     0.002 A 
ATOM      3  C5  UNL d   1      -1.857  -0.508  -1.053  0.00  0.00     0.002 A 
ATOM      4  C6  UNL d   1      -1.939   0.378  -2.126  0.00  0.00    -0.004 A 
ATOM      5  C7  UNL d   1      -1.019   1.418  -2.237  0.00  0.00     0.002 A 
ATOM      6  C8  UNL d   1      -0.012   1.569  -1.282  0.00  0.00     0.002 A 
ENDROOT
BRANCH   1   7
ATOM      7  C2  UNL d   1       1.193   0.827   0.811  0.00  0.00     0.056 C 
BRANCH   7   8
ATOM      8  C1  UNL d   1       2.252   1.868   0.432  0.00  0.00     0.007 C 
ATOM      9  C   UNL d   1       3.233   2.164   1.558  0.00  0.00     0.009 C 
ENDBRANCH   7   8
ENDBRANCH   1   7
TORSDOF 2
ENDMDL
