MODEL 1
REMARK minimizedAffinity -4.01431227
REMARK minimizedRMSD -1
REMARK  2 active torsions:
REMARK  status: ('A' for Active; 'I' for Inactive)
REMARK    1  A    between atoms: C1_2  and  C2_3 
REMARK    2  A    between atoms: C2_3  and  C3_4 
ROOT
ATOM      1  C3  UNL d   1       1.162   0.437  -0.087  0.00  0.00    -0.075 A 
ATOM      2  C4  UNL d   1       0.590   0.584  -1.359  0.00  0.00     0.002 A 
ATOM      3  C5  UNL d   1      -0.643   0.001  -1.653  0.00  0.00     0.002 A 
ATOM      4  C6  UNL d   1      -1.313  -0.744  -0.684  0.00  0.00    -0.004 A 
ATOM      5  C7  UNL d   1      -0.746  -0.910   0.577  0.00  0.00     0.002 A 
ATOM      6  C8  UNL d   1       0.485  -0.323   0.875  0.00  0.00     0.002 A 
ENDROOT
BRANCH   1   7
ATOM      7  C2  UNL d   1       2.482   1.091   0.247  0.00  0.00     0.056 C 
BRANCH   7   8
ATOM      8  C1  UNL d   1       2.418   2.052   1.438  0.00  0.00     0.007 C 
ATOM      9  C   UNL d   1       2.341   3.516   1.025  0.00  0.00     0.009 C 
ENDBRANCH   7   8
ENDBRANCH   1   7
TORSDOF 2
ENDMDL
