MODEL 1
REMARK minimizedAffinity 0.473745227
REMARK minimizedRMSD -1
REMARK  2 active torsions:
REMARK  status: ('A' for Active; 'I' for Inactive)
REMARK    1  A    between atoms: C1_2  and  C2_3 
REMARK    2  A    between atoms: C2_3  and  C3_4 
ROOT
ATOM      1  C3  UNL d   1       1.385   0.834   0.401  0.00  0.00    -0.075 A 
ATOM      2  C4  UNL d   1       1.528   1.436   1.660  0.00  0.00     0.002 A 
ATOM      3  C5  UNL d   1       2.470   2.445   1.859  0.00  0.00     0.002 A 
ATOM      4  C6  UNL d   1       3.286   2.858   0.808  0.00  0.00    -0.004 A 
ATOM      5  C7  UNL d   1       3.164   2.256  -0.443  0.00  0.00     0.002 A 
ATOM      6  C8  UNL d   1       2.219   1.248  -0.646  0.00  0.00     0.002 A 
ENDROOT
BRANCH   1   7
ATOM      7  C2  UNL d   1       0.347  -0.238   0.171  0.00  0.00     0.056 C 
BRANCH   7   8
ATOM      8  C1  UNL d   1      -0.786  -0.242   1.203  0.00  0.00     0.007 C 
ATOM      9  C   UNL d   1      -1.196  -1.642   1.640  0.00  0.00     0.009 C 
ENDBRANCH   7   8
ENDBRANCH   1   7
TORSDOF 2
ENDMDL
