MODEL 1
REMARK minimizedAffinity -3.84624577
REMARK minimizedRMSD -1
REMARK  2 active torsions:
REMARK  status: ('A' for Active; 'I' for Inactive)
REMARK    1  A    between atoms: C1_2  and  C2_3 
REMARK    2  A    between atoms: C2_3  and  C3_4 
ROOT
ATOM      1  C3  UNL d   1       0.094  -0.126  -0.296  0.00  0.00    -0.075 A 
ATOM      2  C4  UNL d   1      -0.502   0.005  -1.559  0.00  0.00     0.002 A 
ATOM      3  C5  UNL d   1      -1.722  -0.612  -1.833  0.00  0.00     0.002 A 
ATOM      4  C6  UNL d   1      -2.356  -1.375  -0.855  0.00  0.00    -0.004 A 
ATOM      5  C7  UNL d   1      -1.765  -1.525   0.398  0.00  0.00     0.002 A 
ATOM      6  C8  UNL d   1      -0.546  -0.905   0.676  0.00  0.00     0.002 A 
ENDROOT
BRANCH   1   7
ATOM      7  C2  UNL d   1       1.401   0.564   0.016  0.00  0.00     0.056 C 
BRANCH   7   8
ATOM      8  C1  UNL d   1       1.272   1.725   1.009  0.00  0.00     0.007 C 
ATOM      9  C   UNL d   1       2.240   2.866   0.727  0.00  0.00     0.009 C 
ENDBRANCH   7   8
ENDBRANCH   1   7
TORSDOF 2
ENDMDL
