MODEL 1
REMARK minimizedAffinity -3.03926396
REMARK minimizedRMSD -1
REMARK  2 active torsions:
REMARK  status: ('A' for Active; 'I' for Inactive)
REMARK    1  A    between atoms: C1_2  and  C2_3 
REMARK    2  A    between atoms: C2_3  and  C3_4 
ROOT
ATOM      1  C3  UNL d   1      -0.560  -0.097  -0.900  0.00  0.00    -0.075 A 
ATOM      2  C4  UNL d   1      -1.731  -0.822  -0.640  0.00  0.00     0.002 A 
ATOM      3  C5  UNL d   1      -2.603  -1.155  -1.677  0.00  0.00     0.002 A 
ATOM      4  C6  UNL d   1      -2.321  -0.758  -2.982  0.00  0.00    -0.004 A 
ATOM      5  C7  UNL d   1      -1.169  -0.022  -3.250  0.00  0.00     0.002 A 
ATOM      6  C8  UNL d   1      -0.292   0.308  -2.215  0.00  0.00     0.002 A 
ENDROOT
BRANCH   1   7
ATOM      7  C2  UNL d   1       0.403   0.241   0.214  0.00  0.00     0.056 C 
BRANCH   7   8
ATOM      8  C1  UNL d   1       1.242  -0.948   0.694  0.00  0.00     0.007 C 
ATOM      9  C   UNL d   1       0.432  -1.984   1.462  0.00  0.00     0.009 C 
ENDBRANCH   7   8
ENDBRANCH   1   7
TORSDOF 2
ENDMDL
