MODEL 1
REMARK minimizedAffinity -5.55618382
REMARK minimizedRMSD -1
REMARK  2 active torsions:
REMARK  status: ('A' for Active; 'I' for Inactive)
REMARK    1  A    between atoms: C1_2  and  C2_3 
REMARK    2  A    between atoms: C2_3  and  C3_4 
ROOT
ATOM      1  C3  UNL d   1       0.354   0.213  -0.100  0.00  0.00    -0.075 A 
ATOM      2  C4  UNL d   1      -0.729  -0.514   0.415  0.00  0.00     0.002 A 
ATOM      3  C5  UNL d   1      -1.863  -0.744  -0.365  0.00  0.00     0.002 A 
ATOM      4  C6  UNL d   1      -1.933  -0.242  -1.663  0.00  0.00    -0.004 A 
ATOM      5  C7  UNL d   1      -0.870   0.496  -2.179  0.00  0.00     0.002 A 
ATOM      6  C8  UNL d   1       0.268   0.723  -1.402  0.00  0.00     0.002 A 
ENDROOT
BRANCH   1   7
ATOM      7  C2  UNL d   1       1.596   0.439   0.728  0.00  0.00     0.056 C 
BRANCH   7   8
ATOM      8  C1  UNL d   1       2.303   1.769   0.442  0.00  0.00     0.007 C 
ATOM      9  C   UNL d   1       2.791   2.473   1.701  0.00  0.00     0.009 C 
ENDBRANCH   7   8
ENDBRANCH   1   7
TORSDOF 2
ENDMDL
