MODEL 1
REMARK minimizedAffinity -1.90984797
REMARK minimizedRMSD -1
REMARK  2 active torsions:
REMARK  status: ('A' for Active; 'I' for Inactive)
REMARK    1  A    between atoms: C1_2  and  C2_3 
REMARK    2  A    between atoms: C2_3  and  C3_4 
ROOT
ATOM      1  C3  UNL d   1      -0.098   1.039  -0.065  0.00  0.00    -0.075 A 
ATOM      2  C4  UNL d   1       0.827   0.637  -1.039  0.00  0.00     0.002 A 
ATOM      3  C5  UNL d   1       0.394   0.035  -2.221  0.00  0.00     0.002 A 
ATOM      4  C6  UNL d   1      -0.965  -0.182  -2.439  0.00  0.00    -0.004 A 
ATOM      5  C7  UNL d   1      -1.891   0.198  -1.470  0.00  0.00     0.002 A 
ATOM      6  C8  UNL d   1      -1.461   0.804  -0.289  0.00  0.00     0.002 A 
ENDROOT
BRANCH   1   7
ATOM      7  C2  UNL d   1       0.362   1.717   1.203  0.00  0.00     0.056 C 
BRANCH   7   8
ATOM      8  C1  UNL d   1       1.776   2.300   1.121  0.00  0.00     0.007 C 
ATOM      9  C   UNL d   1       2.169   3.100   2.356  0.00  0.00     0.009 C 
ENDBRANCH   7   8
ENDBRANCH   1   7
TORSDOF 2
ENDMDL
