MODEL 1
REMARK minimizedAffinity -2.13265324
REMARK minimizedRMSD -1
REMARK  2 active torsions:
REMARK  status: ('A' for Active; 'I' for Inactive)
REMARK    1  A    between atoms: C1_2  and  C2_3 
REMARK    2  A    between atoms: C2_3  and  C3_4 
ROOT
ATOM      1  C3  UNL d   1      -0.091  -0.032  -0.161  0.00  0.00    -0.075 A 
ATOM      2  C4  UNL d   1      -0.893  -1.124   0.201  0.00  0.00     0.002 A 
ATOM      3  C5  UNL d   1      -2.010  -1.467  -0.562  0.00  0.00     0.002 A 
ATOM      4  C6  UNL d   1      -2.343  -0.719  -1.689  0.00  0.00    -0.004 A 
ATOM      5  C7  UNL d   1      -1.563   0.378  -2.049  0.00  0.00     0.002 A 
ATOM      6  C8  UNL d   1      -0.443   0.721  -1.289  0.00  0.00     0.002 A 
ENDROOT
BRANCH   1   7
ATOM      7  C2  UNL d   1       1.135   0.326   0.644  0.00  0.00     0.056 C 
BRANCH   7   8
ATOM      8  C1  UNL d   1       1.851   1.592   0.160  0.00  0.00     0.007 C 
ATOM      9  C   UNL d   1       2.782   2.192   1.204  0.00  0.00     0.009 C 
ENDBRANCH   7   8
ENDBRANCH   1   7
TORSDOF 2
ENDMDL
