MODEL 1
REMARK minimizedAffinity -5.25858021
REMARK minimizedRMSD -1
REMARK  2 active torsions:
REMARK  status: ('A' for Active; 'I' for Inactive)
REMARK    1  A    between atoms: C1_2  and  C2_3 
REMARK    2  A    between atoms: C2_3  and  C3_4 
ROOT
ATOM      1  C3  UNL d   1      -0.340  -0.830  -0.014  0.00  0.00    -0.075 A 
ATOM      2  C4  UNL d   1      -0.489  -1.856   0.930  0.00  0.00     0.002 A 
ATOM      3  C5  UNL d   1      -1.587  -2.715   0.875  0.00  0.00     0.002 A 
ATOM      4  C6  UNL d   1      -2.553  -2.554  -0.117  0.00  0.00    -0.004 A 
ATOM      5  C7  UNL d   1      -2.423  -1.528  -1.050  0.00  0.00     0.002 A 
ATOM      6  C8  UNL d   1      -1.323  -0.669  -1.000  0.00  0.00     0.002 A 
ENDROOT
BRANCH   1   7
ATOM      7  C2  UNL d   1       0.861   0.084   0.022  0.00  0.00     0.056 C 
BRANCH   7   8
ATOM      8  C1  UNL d   1       0.628   1.390   0.791  0.00  0.00     0.007 C 
ATOM      9  C   UNL d   1       1.919   2.112   1.153  0.00  0.00     0.009 C 
ENDBRANCH   7   8
ENDBRANCH   1   7
TORSDOF 2
ENDMDL
