MODEL 1
REMARK minimizedAffinity -3.71400857
REMARK minimizedRMSD -1
REMARK  2 active torsions:
REMARK  status: ('A' for Active; 'I' for Inactive)
REMARK    1  A    between atoms: C1_2  and  C2_3 
REMARK    2  A    between atoms: C2_3  and  C3_4 
ROOT
ATOM      1  C3  UNL d   1       1.236   1.017   0.002  0.00  0.00    -0.075 A 
ATOM      2  C4  UNL d   1       1.487   0.704   1.345  0.00  0.00     0.002 A 
ATOM      3  C5  UNL d   1       1.927   1.687   2.232  0.00  0.00     0.002 A 
ATOM      4  C6  UNL d   1       2.133   2.990   1.785  0.00  0.00    -0.004 A 
ATOM      5  C7  UNL d   1       1.903   3.309   0.448  0.00  0.00     0.002 A 
ATOM      6  C8  UNL d   1       1.458   2.328  -0.440  0.00  0.00     0.002 A 
ENDROOT
BRANCH   1   7
ATOM      7  C2  UNL d   1       0.731  -0.036  -0.956  0.00  0.00     0.056 C 
BRANCH   7   8
ATOM      8  C1  UNL d   1      -0.784  -0.259  -0.895  0.00  0.00     0.007 C 
ATOM      9  C   UNL d   1      -1.567   0.689  -1.793  0.00  0.00     0.009 C 
ENDBRANCH   7   8
ENDBRANCH   1   7
TORSDOF 2
ENDMDL
