MODEL 1
REMARK minimizedAffinity 4.58103228
REMARK minimizedRMSD -1
REMARK  1 active torsions:
REMARK  status: ('A' for Active; 'I' for Inactive)
REMARK    1  A    between atoms: C1_2  and  C2_3 
ROOT
ATOM      1  C2  UNL d   1      -1.144   1.959   1.580  0.00  0.00    -0.076 A 
ATOM      2  C3  UNL d   1      -0.945   2.798   0.471  0.00  0.00     0.004 A 
ATOM      3  C4  UNL d   1       0.330   3.006  -0.053  0.00  0.00    -0.003 A 
ATOM      4  C5  UNL d   1       1.427   2.376   0.524  0.00  0.00     0.000 A 
ATOM      5  C6  UNL d   1       1.246   1.526   1.615  0.00  0.00     0.000 A 
ATOM      6  C7  UNL d   1      -0.035   1.293   2.145  0.00  0.00    -0.073 A 
ATOM      7  C8  UNL d   1      -0.171   0.371   3.325  0.00  0.00     0.078 C 
ENDROOT
BRANCH   1   8
ATOM      8  C1  UNL d   1      -2.546   1.793   2.122  0.00  0.00     0.053 C 
ATOM      9  C   UNL d   1      -3.488   1.155   1.113  0.00  0.00     0.018 C 
ENDBRANCH   1   8
TORSDOF 1
ENDMDL
