MODEL 1
REMARK minimizedAffinity 10.9691343
REMARK minimizedRMSD -1
REMARK  1 active torsions:
REMARK  status: ('A' for Active; 'I' for Inactive)
REMARK    1  A    between atoms: C1_2  and  C2_3 
ROOT
ATOM      1  C2  UNL d   1      -0.630   2.316   1.505  0.00  0.00    -0.076 A 
ATOM      2  C3  UNL d   1      -0.367   3.089   0.360  0.00  0.00     0.004 A 
ATOM      3  C4  UNL d   1       0.941   3.400  -0.009  0.00  0.00    -0.003 A 
ATOM      4  C5  UNL d   1       2.006   2.944   0.759  0.00  0.00     0.000 A 
ATOM      5  C6  UNL d   1       1.764   2.161   1.888  0.00  0.00     0.000 A 
ATOM      6  C7  UNL d   1       0.452   1.824   2.265  0.00  0.00    -0.073 A 
ATOM      7  C8  UNL d   1       0.249   0.983   3.495  0.00  0.00     0.078 C 
ENDROOT
BRANCH   1   8
ATOM      8  C1  UNL d   1      -2.069   2.033   1.871  0.00  0.00     0.053 C 
ATOM      9  C   UNL d   1      -3.030   3.063   1.299  0.00  0.00     0.018 C 
ENDBRANCH   1   8
TORSDOF 1
ENDMDL
