MODEL 1
REMARK minimizedAffinity -2.86731958
REMARK minimizedRMSD -1
REMARK  1 active torsions:
REMARK  status: ('A' for Active; 'I' for Inactive)
REMARK    1  A    between atoms: C1_2  and  C2_3 
ROOT
ATOM      1  C2  UNL d   1       0.901   1.852   1.137  0.00  0.00    -0.076 A 
ATOM      2  C3  UNL d   1       0.015   2.503   0.262  0.00  0.00     0.004 A 
ATOM      3  C4  UNL d   1      -1.342   2.610   0.563  0.00  0.00    -0.003 A 
ATOM      4  C5  UNL d   1      -1.834   2.069   1.746  0.00  0.00     0.000 A 
ATOM      5  C6  UNL d   1      -0.966   1.435   2.634  0.00  0.00     0.000 A 
ATOM      6  C7  UNL d   1       0.407   1.332   2.353  0.00  0.00    -0.073 A 
ATOM      7  C8  UNL d   1       1.297   0.633   3.344  0.00  0.00     0.078 C 
ENDROOT
BRANCH   1   8
ATOM      8  C1  UNL d   1       2.357   1.742   0.744  0.00  0.00     0.053 C 
ATOM      9  C   UNL d   1       2.806   0.300   0.566  0.00  0.00     0.018 C 
ENDBRANCH   1   8
TORSDOF 1
ENDMDL
