MODEL 1
REMARK minimizedAffinity 3.81034684
REMARK minimizedRMSD -1
REMARK  1 active torsions:
REMARK  status: ('A' for Active; 'I' for Inactive)
REMARK    1  A    between atoms: C1_2  and  C2_3 
ROOT
ATOM      1  C2  UNL d   1       2.340   2.289   1.464  0.00  0.00    -0.076 A 
ATOM      2  C3  UNL d   1       3.465   3.132   1.494  0.00  0.00     0.004 A 
ATOM      3  C4  UNL d   1       4.256   3.232   2.637  0.00  0.00    -0.003 A 
ATOM      4  C5  UNL d   1       3.935   2.491   3.769  0.00  0.00     0.000 A 
ATOM      5  C6  UNL d   1       2.833   1.636   3.751  0.00  0.00     0.000 A 
ATOM      6  C7  UNL d   1       2.035   1.511   2.601  0.00  0.00    -0.073 A 
ATOM      7  C8  UNL d   1       0.855   0.579   2.639  0.00  0.00     0.078 C 
ENDROOT
BRANCH   1   8
ATOM      8  C1  UNL d   1       1.504   2.241   0.205  0.00  0.00     0.053 C 
ATOM      9  C   UNL d   1       0.408   3.296   0.193  0.00  0.00     0.018 C 
ENDBRANCH   1   8
TORSDOF 1
ENDMDL
