MODEL 1
REMARK minimizedAffinity 6.74368238
REMARK minimizedRMSD -1
REMARK  1 active torsions:
REMARK  status: ('A' for Active; 'I' for Inactive)
REMARK    1  A    between atoms: C1_2  and  C2_3 
ROOT
ATOM      1  C2  UNL d   1       0.997   0.011  -0.631  0.00  0.00    -0.076 A 
ATOM      2  C3  UNL d   1       2.296  -0.336  -0.220  0.00  0.00     0.004 A 
ATOM      3  C4  UNL d   1       2.725  -1.662  -0.241  0.00  0.00    -0.003 A 
ATOM      4  C5  UNL d   1       1.862  -2.663  -0.675  0.00  0.00     0.000 A 
ATOM      5  C6  UNL d   1       0.577  -2.335  -1.103  0.00  0.00     0.000 A 
ATOM      6  C7  UNL d   1       0.134  -1.001  -1.103  0.00  0.00    -0.073 A 
ATOM      7  C8  UNL d   1      -1.265  -0.705  -1.570  0.00  0.00     0.078 C 
ENDROOT
BRANCH   1   8
ATOM      8  C1  UNL d   1       0.578   1.462  -0.560  0.00  0.00     0.053 C 
ATOM      9  C   UNL d   1       1.437   2.270   0.401  0.00  0.00     0.018 C 
ENDBRANCH   1   8
TORSDOF 1
ENDMDL
