MODEL 1
REMARK minimizedAffinity 0.841022551
REMARK minimizedRMSD -1
REMARK  0 active torsions:
REMARK  status: ('A' for Active; 'I' for Inactive)
ROOT
ATOM      1  C   UNL d   1       3.020   5.986  -5.994  0.00  0.00     0.078 C 
ATOM      2  C1  UNL d   1       2.831   4.498  -5.994  0.00  0.00    -0.077 A 
ATOM      3  C2  UNL d   1       1.550   3.934  -5.977  0.00  0.00    -0.001 A 
ATOM      4  C3  UNL d   1       1.390   2.547  -5.967  0.00  0.00     0.003 A 
ATOM      5  C4  UNL d   1       2.507   1.714  -5.975  0.00  0.00    -0.005 A 
ATOM      6  C5  UNL d   1       3.786   2.267  -5.991  0.00  0.00     0.003 A 
ATOM      7  C6  UNL d   1       3.948   3.653  -6.000  0.00  0.00    -0.001 A 
ENDROOT
TORSDOF 0
ENDMDL
