MODEL 1
REMARK minimizedAffinity 4.04842281
REMARK minimizedRMSD -1
REMARK  0 active torsions:
REMARK  status: ('A' for Active; 'I' for Inactive)
ROOT
ATOM      1  C   UNL d   1      -1.135  -2.558  -2.007  0.00  0.00     0.078 C 
ATOM      2  C1  UNL d   1      -1.535  -2.934  -3.402  0.00  0.00    -0.077 A 
ATOM      3  C2  UNL d   1      -1.152  -2.151  -4.498  0.00  0.00    -0.001 A 
ATOM      4  C3  UNL d   1      -1.539  -2.507  -5.791  0.00  0.00     0.003 A 
ATOM      5  C4  UNL d   1      -2.313  -3.647  -6.000  0.00  0.00    -0.005 A 
ATOM      6  C5  UNL d   1      -2.702  -4.431  -4.915  0.00  0.00     0.003 A 
ATOM      7  C6  UNL d   1      -2.315  -4.076  -3.622  0.00  0.00    -0.001 A 
ENDROOT
TORSDOF 0
ENDMDL
