MODEL 1
REMARK minimizedAffinity -3.93097854
REMARK minimizedRMSD -1
REMARK  0 active torsions:
REMARK  status: ('A' for Active; 'I' for Inactive)
ROOT
ATOM      1  C   UNL d   1       6.000   5.995  -5.491  0.00  0.00     0.078 C 
ATOM      2  C1  UNL d   1       4.678   5.286  -5.491  0.00  0.00    -0.077 A 
ATOM      3  C2  UNL d   1       3.521   5.918  -5.019  0.00  0.00    -0.001 A 
ATOM      4  C3  UNL d   1       2.299   5.243  -5.016  0.00  0.00     0.003 A 
ATOM      5  C4  UNL d   1       2.223   3.932  -5.483  0.00  0.00    -0.005 A 
ATOM      6  C5  UNL d   1       3.369   3.294  -5.952  0.00  0.00     0.003 A 
ATOM      7  C6  UNL d   1       4.592   3.968  -5.956  0.00  0.00    -0.001 A 
ENDROOT
TORSDOF 0
ENDMDL
