MODEL 1
REMARK minimizedAffinity 7.95496607
REMARK minimizedRMSD -1
REMARK  0 active torsions:
REMARK  status: ('A' for Active; 'I' for Inactive)
ROOT
ATOM      1  C   UNL d   1       1.496   1.156   2.331  0.00  0.00     0.078 C 
ATOM      2  C1  UNL d   1       0.424   0.142   2.598  0.00  0.00    -0.077 A 
ATOM      3  C2  UNL d   1       0.196  -0.918   1.711  0.00  0.00    -0.001 A 
ATOM      4  C3  UNL d   1      -0.811  -1.849   1.968  0.00  0.00     0.003 A 
ATOM      5  C4  UNL d   1      -1.600  -1.729   3.110  0.00  0.00    -0.005 A 
ATOM      6  C5  UNL d   1      -1.382  -0.677   3.998  0.00  0.00     0.003 A 
ATOM      7  C6  UNL d   1      -0.375   0.255   3.743  0.00  0.00    -0.001 A 
ENDROOT
TORSDOF 0
ENDMDL
