MODEL 1
REMARK minimizedAffinity -2.00706315
REMARK minimizedRMSD -1
REMARK  0 active torsions:
REMARK  status: ('A' for Active; 'I' for Inactive)
ROOT
ATOM      1  C   UNL d   1       5.354   5.987  -5.966  0.00  0.00     0.078 C 
ATOM      2  C1  UNL d   1       4.059   5.295  -5.664  0.00  0.00    -0.077 A 
ATOM      3  C2  UNL d   1       3.864   3.949  -6.000  0.00  0.00    -0.001 A 
ATOM      4  C3  UNL d   1       2.650   3.321  -5.721  0.00  0.00     0.003 A 
ATOM      5  C4  UNL d   1       1.620   4.030  -5.106  0.00  0.00    -0.005 A 
ATOM      6  C5  UNL d   1       1.803   5.369  -4.770  0.00  0.00     0.003 A 
ATOM      7  C6  UNL d   1       3.017   6.000  -5.048  0.00  0.00    -0.001 A 
ENDROOT
TORSDOF 0
ENDMDL
