MODEL 1
REMARK minimizedAffinity 6.14505434
REMARK minimizedRMSD -1
REMARK  0 active torsions:
REMARK  status: ('A' for Active; 'I' for Inactive)
ROOT
ATOM      1  C   UNL d   1      -1.676  -2.246  -1.901  0.00  0.00     0.078 C 
ATOM      2  C1  UNL d   1      -1.905  -2.634  -3.332  0.00  0.00    -0.077 A 
ATOM      3  C2  UNL d   1      -1.286  -1.937  -4.376  0.00  0.00    -0.001 A 
ATOM      4  C3  UNL d   1      -1.516  -2.303  -5.703  0.00  0.00     0.003 A 
ATOM      5  C4  UNL d   1      -2.368  -3.366  -5.998  0.00  0.00    -0.005 A 
ATOM      6  C5  UNL d   1      -2.991  -4.063  -4.965  0.00  0.00     0.003 A 
ATOM      7  C6  UNL d   1      -2.761  -3.699  -3.638  0.00  0.00    -0.001 A 
ENDROOT
TORSDOF 0
ENDMDL
