MODEL 1
REMARK minimizedAffinity 2.16823363
REMARK minimizedRMSD -1
REMARK  0 active torsions:
REMARK  status: ('A' for Active; 'I' for Inactive)
ROOT
ATOM      1  C   UNL d   1       2.844   3.338  -2.180  0.00  0.00     0.078 C 
ATOM      2  C1  UNL d   1       2.551   3.959  -3.513  0.00  0.00    -0.077 A 
ATOM      3  C2  UNL d   1       2.491   3.179  -4.674  0.00  0.00    -0.001 A 
ATOM      4  C3  UNL d   1       2.227   3.772  -5.910  0.00  0.00     0.003 A 
ATOM      5  C4  UNL d   1       2.022   5.147  -5.997  0.00  0.00    -0.005 A 
ATOM      6  C5  UNL d   1       2.082   5.932  -4.847  0.00  0.00     0.003 A 
ATOM      7  C6  UNL d   1       2.346   5.341  -3.610  0.00  0.00    -0.001 A 
ENDROOT
TORSDOF 0
ENDMDL
