MODEL 1
REMARK minimizedAffinity -1.13498211
REMARK minimizedRMSD -1
REMARK  0 active torsions:
REMARK  status: ('A' for Active; 'I' for Inactive)
ROOT
ATOM      1  C   UNL d   1       3.413   3.376  -5.974  0.00  0.00     0.078 C 
ATOM      2  C1  UNL d   1       4.321   2.397  -5.292  0.00  0.00    -0.077 A 
ATOM      3  C2  UNL d   1       4.898   1.335  -6.000  0.00  0.00    -0.001 A 
ATOM      4  C3  UNL d   1       5.734   0.425  -5.350  0.00  0.00     0.003 A 
ATOM      5  C4  UNL d   1       6.000   0.567  -3.990  0.00  0.00    -0.005 A 
ATOM      6  C5  UNL d   1       5.429   1.619  -3.277  0.00  0.00     0.003 A 
ATOM      7  C6  UNL d   1       4.593   2.530  -3.925  0.00  0.00    -0.001 A 
ENDROOT
TORSDOF 0
ENDMDL
