MODEL 1
REMARK minimizedAffinity 6.54842567
REMARK minimizedRMSD -1
REMARK  0 active torsions:
REMARK  status: ('A' for Active; 'I' for Inactive)
ROOT
ATOM      1  C   UNL d   1      -1.898  -2.139   2.686  0.00  0.00     0.078 C 
ATOM      2  C1  UNL d   1      -1.579  -2.023   1.226  0.00  0.00    -0.077 A 
ATOM      3  C2  UNL d   1      -2.432  -1.336   0.353  0.00  0.00    -0.001 A 
ATOM      4  C3  UNL d   1      -2.127  -1.245  -1.006  0.00  0.00     0.003 A 
ATOM      5  C4  UNL d   1      -0.969  -1.839  -1.504  0.00  0.00    -0.005 A 
ATOM      6  C5  UNL d   1      -0.115  -2.526  -0.644  0.00  0.00     0.003 A 
ATOM      7  C6  UNL d   1      -0.419  -2.618   0.715  0.00  0.00    -0.001 A 
ENDROOT
TORSDOF 0
ENDMDL
