MODEL 1
REMARK minimizedAffinity -4.48691368
REMARK minimizedRMSD -1
REMARK  0 active torsions:
REMARK  status: ('A' for Active; 'I' for Inactive)
ROOT
ATOM      1  C   UNL d   1       3.549   3.002   0.323  0.00  0.00     0.078 C 
ATOM      2  C1  UNL d   1       4.114   1.864   1.120  0.00  0.00    -0.077 A 
ATOM      3  C2  UNL d   1       3.310   0.786   1.509  0.00  0.00    -0.001 A 
ATOM      4  C3  UNL d   1       3.848  -0.261   2.259  0.00  0.00     0.003 A 
ATOM      5  C4  UNL d   1       5.192  -0.240   2.627  0.00  0.00    -0.005 A 
ATOM      6  C5  UNL d   1       5.999   0.829   2.246  0.00  0.00     0.003 A 
ATOM      7  C6  UNL d   1       5.463   1.878   1.496  0.00  0.00    -0.001 A 
ENDROOT
TORSDOF 0
ENDMDL
