MODEL 1
REMARK minimizedAffinity -2.89811349
REMARK minimizedRMSD -1
REMARK  0 active torsions:
REMARK  status: ('A' for Active; 'I' for Inactive)
ROOT
ATOM      1  C   UNL d   1       5.876   5.493  -5.629  0.00  0.00     0.078 C 
ATOM      2  C1  UNL d   1       4.537   4.876  -5.357  0.00  0.00    -0.077 A 
ATOM      3  C2  UNL d   1       4.142   3.696  -5.999  0.00  0.00    -0.001 A 
ATOM      4  C3  UNL d   1       2.889   3.138  -5.743  0.00  0.00     0.003 A 
ATOM      5  C4  UNL d   1       2.018   3.755  -4.847  0.00  0.00    -0.005 A 
ATOM      6  C5  UNL d   1       2.401   4.931  -4.205  0.00  0.00     0.003 A 
ATOM      7  C6  UNL d   1       3.654   5.490  -4.459  0.00  0.00    -0.001 A 
ENDROOT
TORSDOF 0
ENDMDL
