MODEL 1
REMARK minimizedAffinity -1.34272051
REMARK minimizedRMSD -1
REMARK  0 active torsions:
REMARK  status: ('A' for Active; 'I' for Inactive)
ROOT
ATOM      1  C   UNL d   1       5.765   4.254  -5.995  0.00  0.00     0.078 C 
ATOM      2  C1  UNL d   1       5.591   3.004  -5.186  0.00  0.00    -0.077 A 
ATOM      3  C2  UNL d   1       5.025   1.854  -5.749  0.00  0.00    -0.001 A 
ATOM      4  C3  UNL d   1       4.860   0.700  -4.981  0.00  0.00     0.003 A 
ATOM      5  C4  UNL d   1       5.258   0.685  -3.646  0.00  0.00    -0.005 A 
ATOM      6  C5  UNL d   1       5.821   1.825  -3.077  0.00  0.00     0.003 A 
ATOM      7  C6  UNL d   1       5.987   2.980  -3.843  0.00  0.00    -0.001 A 
ENDROOT
TORSDOF 0
ENDMDL
