MODEL 1
REMARK minimizedAffinity -3.15713954
REMARK minimizedRMSD -1
REMARK  0 active torsions:
REMARK  status: ('A' for Active; 'I' for Inactive)
ROOT
ATOM      1  C   UNL d   1       2.283   3.338  -6.000  0.00  0.00     0.078 C 
ATOM      2  C1  UNL d   1       3.576   2.652  -5.673  0.00  0.00    -0.077 A 
ATOM      3  C2  UNL d   1       3.751   1.286  -5.925  0.00  0.00    -0.001 A 
ATOM      4  C3  UNL d   1       4.957   0.659  -5.607  0.00  0.00     0.003 A 
ATOM      5  C4  UNL d   1       5.996   1.389  -5.034  0.00  0.00    -0.005 A 
ATOM      6  C5  UNL d   1       5.829   2.749  -4.777  0.00  0.00     0.003 A 
ATOM      7  C6  UNL d   1       4.624   3.378  -5.095  0.00  0.00    -0.001 A 
ENDROOT
TORSDOF 0
ENDMDL
