MODEL 1
REMARK minimizedAffinity -3.57098603
REMARK minimizedRMSD -1
REMARK  0 active torsions:
REMARK  status: ('A' for Active; 'I' for Inactive)
ROOT
ATOM      1  C   UNL d   1       5.678  -0.201   2.598  0.00  0.00     0.078 C 
ATOM      2  C1  UNL d   1       4.675   0.770   2.050  0.00  0.00    -0.077 A 
ATOM      3  C2  UNL d   1       5.074   2.018   1.557  0.00  0.00    -0.001 A 
ATOM      4  C3  UNL d   1       4.128   2.916   1.059  0.00  0.00     0.003 A 
ATOM      5  C4  UNL d   1       2.777   2.576   1.051  0.00  0.00    -0.005 A 
ATOM      6  C5  UNL d   1       2.370   1.337   1.542  0.00  0.00     0.003 A 
ATOM      7  C6  UNL d   1       3.314   0.438   2.040  0.00  0.00    -0.001 A 
ENDROOT
TORSDOF 0
ENDMDL
