MODEL 1
REMARK minimizedAffinity 1.12725067
REMARK minimizedRMSD -1
REMARK  0 active torsions:
REMARK  status: ('A' for Active; 'I' for Inactive)
ROOT
ATOM      1  C   UNL d   1       3.447  -2.341  -5.966  0.00  0.00     0.172 C 
ATOM      2  N   UNL d   1       4.240  -1.135  -5.978  0.00  0.00    -0.070 N 
ATOM      3  C1  UNL d   1       3.750   0.143  -5.993  0.00  0.00    -0.004 A 
ATOM      4  C2  UNL d   1       4.823   1.007  -6.000  0.00  0.00    -0.047 A 
ATOM      5  C3  UNL d   1       6.000   0.221  -5.990  0.00  0.00    -0.047 A 
ATOM      6  C4  UNL d   1       5.610  -1.101  -5.976  0.00  0.00    -0.004 A 
ENDROOT
TORSDOF 0
ENDMDL
