MODEL 1
REMARK minimizedAffinity 0.646344721
REMARK minimizedRMSD -1
REMARK  0 active torsions:
REMARK  status: ('A' for Active; 'I' for Inactive)
ROOT
ATOM      1  C   UNL d   1       0.354  -1.203   0.327  0.00  0.00     0.172 C 
ATOM      2  N   UNL d   1       0.334  -2.278  -0.637  0.00  0.00    -0.070 N 
ATOM      3  C1  UNL d   1      -0.674  -2.531  -1.529  0.00  0.00    -0.004 A 
ATOM      4  C2  UNL d   1      -0.315  -3.637  -2.269  0.00  0.00    -0.047 A 
ATOM      5  C3  UNL d   1       0.953  -4.063  -1.806  0.00  0.00    -0.047 A 
ATOM      6  C4  UNL d   1       1.331  -3.204  -0.796  0.00  0.00    -0.004 A 
ENDROOT
TORSDOF 0
ENDMDL
