MODEL 1
REMARK minimizedAffinity 4.89218855
REMARK minimizedRMSD -1
REMARK  0 active torsions:
REMARK  status: ('A' for Active; 'I' for Inactive)
ROOT
ATOM      1  C   UNL d   1       2.760   1.161   0.742  0.00  0.00     0.172 C 
ATOM      2  N   UNL d   1       1.400   1.358   0.300  0.00  0.00    -0.070 N 
ATOM      3  C1  UNL d   1       0.405   0.418   0.334  0.00  0.00    -0.004 A 
ATOM      4  C2  UNL d   1      -0.739   0.996  -0.172  0.00  0.00    -0.047 A 
ATOM      5  C3  UNL d   1      -0.421   2.329  -0.523  0.00  0.00    -0.047 A 
ATOM      6  C4  UNL d   1       0.910   2.527  -0.220  0.00  0.00    -0.004 A 
ENDROOT
TORSDOF 0
ENDMDL
