MODEL 1
REMARK minimizedAffinity -2.70603371
REMARK minimizedRMSD -1
REMARK  0 active torsions:
REMARK  status: ('A' for Active; 'I' for Inactive)
ROOT
ATOM      1  C   UNL d   1       4.652  -1.669  -3.952  0.00  0.00     0.172 C 
ATOM      2  N   UNL d   1       4.388  -2.969  -4.522  0.00  0.00    -0.070 N 
ATOM      3  C1  UNL d   1       3.752  -3.204  -5.712  0.00  0.00    -0.004 A 
ATOM      4  C2  UNL d   1       3.697  -4.569  -5.899  0.00  0.00    -0.047 A 
ATOM      5  C3  UNL d   1       4.321  -5.174  -4.783  0.00  0.00    -0.047 A 
ATOM      6  C4  UNL d   1       4.739  -4.161  -3.946  0.00  0.00    -0.004 A 
ENDROOT
TORSDOF 0
ENDMDL
