MODEL 1
REMARK minimizedAffinity 3.28797936
REMARK minimizedRMSD -1
REMARK  0 active torsions:
REMARK  status: ('A' for Active; 'I' for Inactive)
ROOT
ATOM      1  C   UNL d   1       2.312   1.435   0.459  0.00  0.00     0.172 C 
ATOM      2  N   UNL d   1       2.405   1.461   1.900  0.00  0.00    -0.070 N 
ATOM      3  C1  UNL d   1       2.733   2.552   2.659  0.00  0.00    -0.004 A 
ATOM      4  C2  UNL d   1       2.712   2.168   3.982  0.00  0.00    -0.047 A 
ATOM      5  C3  UNL d   1       2.360   0.797   4.020  0.00  0.00    -0.047 A 
ATOM      6  C4  UNL d   1       2.176   0.385   2.717  0.00  0.00    -0.004 A 
ENDROOT
TORSDOF 0
ENDMDL
