MODEL 1
REMARK minimizedAffinity 5.43278885
REMARK minimizedRMSD -1
REMARK  0 active torsions:
REMARK  status: ('A' for Active; 'I' for Inactive)
ROOT
ATOM      1  C   UNL d   1       2.230   1.650   0.439  0.00  0.00     0.172 C 
ATOM      2  N   UNL d   1       2.467   1.672   1.863  0.00  0.00    -0.070 N 
ATOM      3  C1  UNL d   1       2.766   2.784   2.606  0.00  0.00    -0.004 A 
ATOM      4  C2  UNL d   1       2.917   2.387   3.917  0.00  0.00    -0.047 A 
ATOM      5  C3  UNL d   1       2.702   0.990   3.964  0.00  0.00    -0.047 A 
ATOM      6  C4  UNL d   1       2.425   0.573   2.679  0.00  0.00    -0.004 A 
ENDROOT
TORSDOF 0
ENDMDL
