MODEL 1
REMARK minimizedAffinity 1.54736543
REMARK minimizedRMSD -1
REMARK  0 active torsions:
REMARK  status: ('A' for Active; 'I' for Inactive)
ROOT
ATOM      1  C   UNL d   1      -0.910   0.204  -0.616  0.00  0.00     0.172 C 
ATOM      2  N   UNL d   1      -1.666   0.556  -1.795  0.00  0.00    -0.070 N 
ATOM      3  C1  UNL d   1      -2.504   1.633  -1.914  0.00  0.00    -0.004 A 
ATOM      4  C2  UNL d   1      -3.031   1.618  -3.187  0.00  0.00    -0.047 A 
ATOM      5  C3  UNL d   1      -2.492   0.493  -3.856  0.00  0.00    -0.047 A 
ATOM      6  C4  UNL d   1      -1.651  -0.147  -2.970  0.00  0.00    -0.004 A 
ENDROOT
TORSDOF 0
ENDMDL
