MODEL 1
REMARK minimizedAffinity -1.35863698
REMARK minimizedRMSD -1
REMARK  0 active torsions:
REMARK  status: ('A' for Active; 'I' for Inactive)
ROOT
ATOM      1  C   UNL d   1       2.283  -2.330   1.876  0.00  0.00     0.172 C 
ATOM      2  N   UNL d   1       2.426  -0.895   1.805  0.00  0.00    -0.070 N 
ATOM      3  C1  UNL d   1       2.552  -0.161   0.656  0.00  0.00    -0.004 A 
ATOM      4  C2  UNL d   1       2.663   1.165   1.012  0.00  0.00    -0.047 A 
ATOM      5  C3  UNL d   1       2.603   1.231   2.424  0.00  0.00    -0.047 A 
ATOM      6  C4  UNL d   1       2.456  -0.059   2.889  0.00  0.00    -0.004 A 
ENDROOT
TORSDOF 0
ENDMDL
