MODEL 1
REMARK minimizedAffinity 3.12074614
REMARK minimizedRMSD -1
REMARK  0 active torsions:
REMARK  status: ('A' for Active; 'I' for Inactive)
ROOT
ATOM      1  C   UNL d   1      -0.749  -3.942  -1.873  0.00  0.00     0.172 C 
ATOM      2  N   UNL d   1      -0.353  -3.219  -0.687  0.00  0.00    -0.070 N 
ATOM      3  C1  UNL d   1       0.842  -3.353  -0.033  0.00  0.00    -0.004 A 
ATOM      4  C2  UNL d   1       0.832  -2.494   1.045  0.00  0.00    -0.047 A 
ATOM      5  C3  UNL d   1      -0.413  -1.821   1.039  0.00  0.00    -0.047 A 
ATOM      6  C4  UNL d   1      -1.127  -2.290  -0.044  0.00  0.00    -0.004 A 
ENDROOT
TORSDOF 0
ENDMDL
