MODEL 1
REMARK minimizedAffinity 4.67212248
REMARK minimizedRMSD -1
REMARK  0 active torsions:
REMARK  status: ('A' for Active; 'I' for Inactive)
ROOT
ATOM      1  C1  DEN d   1      -4.374  -0.753  -0.392  0.00  0.00     0.130 A 
ATOM      2  C2  DEN d   1      -5.809  -0.586  -0.606  0.00  0.00    -0.031 A 
ATOM      3  C3  DEN d   1      -6.000   0.136  -1.880  0.00  0.00     0.027 A 
ATOM      4  C4  DEN d   1      -4.222   1.002  -3.535  0.00  0.00     0.027 A 
ATOM      5  C5  DEN d   1      -2.870   1.107  -3.778  0.00  0.00    -0.003 A 
ATOM      6  C6  DEN d   1      -1.932   0.633  -2.899  0.00  0.00     0.001 A 
ATOM      7  C7  DEN d   1      -2.334  -0.008  -1.758  0.00  0.00     0.017 A 
ATOM      8  C8  DEN d   1      -3.695  -0.111  -1.503  0.00  0.00    -0.094 A 
ATOM      9  C9  DEN d   1      -4.628   0.363  -2.409  0.00  0.00    -0.072 A 
ENDROOT
TORSDOF 0
ENDMDL
