MODEL 1
REMARK minimizedAffinity 5.9776721
REMARK minimizedRMSD -1
REMARK  0 active torsions:
REMARK  status: ('A' for Active; 'I' for Inactive)
ROOT
ATOM      1  C1  DEN d   1       2.130  -2.812  -0.736  0.00  0.00     0.130 A 
ATOM      2  C2  DEN d   1       1.079  -2.612   0.258  0.00  0.00    -0.031 A 
ATOM      3  C3  DEN d   1       1.154  -1.214   0.727  0.00  0.00     0.027 A 
ATOM      4  C4  DEN d   1       2.783   0.653   0.009  0.00  0.00     0.027 A 
ATOM      5  C5  DEN d   1       3.857   0.956  -0.798  0.00  0.00    -0.003 A 
ATOM      6  C6  DEN d   1       4.447   0.024  -1.609  0.00  0.00     0.001 A 
ATOM      7  C7  DEN d   1       3.938  -1.247  -1.665  0.00  0.00     0.017 A 
ATOM      8  C8  DEN d   1       2.860  -1.562  -0.848  0.00  0.00    -0.094 A 
ATOM      9  C9  DEN d   1       2.269  -0.602  -0.044  0.00  0.00    -0.072 A 
ENDROOT
TORSDOF 0
ENDMDL
