MODEL 1
REMARK minimizedAffinity 2.56457281
REMARK minimizedRMSD -1
REMARK  0 active torsions:
REMARK  status: ('A' for Active; 'I' for Inactive)
ROOT
ATOM      1  C1  DEN d   1       3.227  -1.588  -1.300  0.00  0.00     0.130 A 
ATOM      2  C2  DEN d   1       4.326  -1.567  -2.261  0.00  0.00    -0.031 A 
ATOM      3  C3  DEN d   1       4.932  -0.221  -2.232  0.00  0.00     0.027 A 
ATOM      4  C4  DEN d   1       4.281   1.821  -0.796  0.00  0.00     0.027 A 
ATOM      5  C5  DEN d   1       3.405   2.289   0.158  0.00  0.00    -0.003 A 
ATOM      6  C6  DEN d   1       2.395   1.514   0.664  0.00  0.00     0.001 A 
ATOM      7  C7  DEN d   1       2.264   0.215   0.251  0.00  0.00     0.017 A 
ATOM      8  C8  DEN d   1       3.139  -0.262  -0.716  0.00  0.00    -0.094 A 
ATOM      9  C9  DEN d   1       4.161   0.533  -1.206  0.00  0.00    -0.072 A 
ENDROOT
TORSDOF 0
ENDMDL
