MODEL 1
REMARK minimizedAffinity 3.23692822
REMARK minimizedRMSD -1
REMARK  0 active torsions:
REMARK  status: ('A' for Active; 'I' for Inactive)
ROOT
ATOM      1  C1  DEN d   1       1.429   0.642   2.244  0.00  0.00     0.130 A 
ATOM      2  C2  DEN d   1       0.981   0.504   3.628  0.00  0.00    -0.031 A 
ATOM      3  C3  DEN d   1      -0.464   0.803   3.672  0.00  0.00     0.027 A 
ATOM      4  C4  DEN d   1      -2.045   1.456   1.742  0.00  0.00     0.027 A 
ATOM      5  C5  DEN d   1      -2.122   1.710   0.390  0.00  0.00    -0.003 A 
ATOM      6  C6  DEN d   1      -1.023   1.660  -0.426  0.00  0.00     0.001 A 
ATOM      7  C7  DEN d   1       0.193   1.303   0.095  0.00  0.00     0.017 A 
ATOM      8  C8  DEN d   1       0.280   1.053   1.458  0.00  0.00    -0.094 A 
ATOM      9  C9  DEN d   1      -0.845   1.097   2.264  0.00  0.00    -0.072 A 
ENDROOT
TORSDOF 0
ENDMDL
