MODEL 1
REMARK minimizedAffinity 3.35011244
REMARK minimizedRMSD -1
REMARK  0 active torsions:
REMARK  status: ('A' for Active; 'I' for Inactive)
ROOT
ATOM      1  C1  DEN d   1       0.141   0.961   3.348  0.00  0.00     0.130 A 
ATOM      2  C2  DEN d   1       0.850  -0.249   2.941  0.00  0.00    -0.031 A 
ATOM      3  C3  DEN d   1       0.735  -0.375   1.474  0.00  0.00     0.027 A 
ATOM      4  C4  DEN d   1      -0.461   1.182  -0.199  0.00  0.00     0.027 A 
ATOM      5  C5  DEN d   1      -1.213   2.329  -0.325  0.00  0.00    -0.003 A 
ATOM      6  C6  DEN d   1      -1.593   3.076   0.759  0.00  0.00     0.001 A 
ATOM      7  C7  DEN d   1      -1.182   2.709   2.014  0.00  0.00     0.017 A 
ATOM      8  C8  DEN d   1      -0.430   1.549   2.149  0.00  0.00    -0.094 A 
ATOM      9  C9  DEN d   1      -0.046   0.815   1.040  0.00  0.00    -0.072 A 
ENDROOT
TORSDOF 0
ENDMDL
