MODEL 1
REMARK minimizedAffinity 5.6086359
REMARK minimizedRMSD -1
REMARK  0 active torsions:
REMARK  status: ('A' for Active; 'I' for Inactive)
ROOT
ATOM      1  C1  DEN d   1       1.765  -3.086  -0.765  0.00  0.00     0.130 A 
ATOM      2  C2  DEN d   1       1.060  -2.689   0.450  0.00  0.00    -0.031 A 
ATOM      3  C3  DEN d   1       1.630  -1.407   0.911  0.00  0.00     0.027 A 
ATOM      4  C4  DEN d   1       3.523  -0.004  -0.137  0.00  0.00     0.027 A 
ATOM      5  C5  DEN d   1       4.434   0.060  -1.168  0.00  0.00    -0.003 A 
ATOM      6  C6  DEN d   1       4.542  -0.929  -2.110  0.00  0.00     0.001 A 
ATOM      7  C7  DEN d   1       3.694  -2.003  -2.066  0.00  0.00     0.017 A 
ATOM      8  C8  DEN d   1       2.777  -2.078  -1.025  0.00  0.00    -0.094 A 
ATOM      9  C9  DEN d   1       2.676  -1.062  -0.090  0.00  0.00    -0.072 A 
ENDROOT
TORSDOF 0
ENDMDL
