MODEL 1
REMARK minimizedAffinity -3.4594543
REMARK minimizedRMSD -1
REMARK  0 active torsions:
REMARK  status: ('A' for Active; 'I' for Inactive)
ROOT
ATOM      1  C   UNL d   1       0.014   3.453   0.427  0.00  0.00    -0.002 A 
ATOM      2  C1  UNL d   1       1.348   3.136   0.216  0.00  0.00     0.010 A 
ATOM      3  C2  UNL d   1       1.758   1.804   0.137  0.00  0.00     0.041 A 
ATOM      4  C3  UNL d   1       0.794   0.785   0.274  0.00  0.00    -0.075 A 
ATOM      5  S   UNL d   1       1.065  -0.917   0.211  0.00  0.00     0.015 SA
ATOM      6  C4  UNL d   1      -0.585  -1.263   0.462  0.00  0.00     0.022 A 
ATOM      7  C5  UNL d   1      -1.338  -0.120   0.593  0.00  0.00     0.026 A 
ATOM      8  C6  UNL d   1      -0.556   1.079   0.486  0.00  0.00    -0.082 A 
ATOM      9  C7  UNL d   1      -0.939   2.440   0.562  0.00  0.00     0.045 A 
ENDROOT
TORSDOF 0
ENDMDL
