MODEL 1
REMARK minimizedAffinity -2.96983361
REMARK minimizedRMSD -1
REMARK  0 active torsions:
REMARK  status: ('A' for Active; 'I' for Inactive)
ROOT
ATOM      1  C   UNL d   1       2.279   3.400   0.655  0.00  0.00    -0.002 A 
ATOM      2  C1  UNL d   1       2.931   2.175   0.644  0.00  0.00     0.010 A 
ATOM      3  C2  UNL d   1       2.208   0.986   0.524  0.00  0.00     0.041 A 
ATOM      4  C3  UNL d   1       0.805   1.051   0.412  0.00  0.00    -0.075 A 
ATOM      5  S   UNL d   1      -0.287  -0.274   0.253  0.00  0.00     0.015 SA
ATOM      6  C4  UNL d   1      -1.645   0.755   0.196  0.00  0.00     0.022 A 
ATOM      7  C5  UNL d   1      -1.292   2.080   0.295  0.00  0.00     0.026 A 
ATOM      8  C6  UNL d   1       0.126   2.272   0.420  0.00  0.00    -0.082 A 
ATOM      9  C7  UNL d   1       0.887   3.459   0.544  0.00  0.00     0.045 A 
ENDROOT
TORSDOF 0
ENDMDL
