MODEL 1
REMARK minimizedAffinity -1.74389553
REMARK minimizedRMSD -1
REMARK  0 active torsions:
REMARK  status: ('A' for Active; 'I' for Inactive)
ROOT
ATOM      1  C   UNL d   1      -0.035   3.654  -0.004  0.00  0.00    -0.002 A 
ATOM      2  C1  UNL d   1       0.993   3.238  -0.839  0.00  0.00     0.010 A 
ATOM      3  C2  UNL d   1       1.304   1.882  -0.960  0.00  0.00     0.041 A 
ATOM      4  C3  UNL d   1       0.557   0.943  -0.223  0.00  0.00    -0.075 A 
ATOM      5  S   UNL d   1       0.759  -0.769  -0.214  0.00  0.00     0.015 SA
ATOM      6  C4  UNL d   1      -0.514  -0.989   0.897  0.00  0.00     0.022 A 
ATOM      7  C5  UNL d   1      -1.090   0.205   1.263  0.00  0.00     0.026 A 
ATOM      8  C6  UNL d   1      -0.483   1.338   0.623  0.00  0.00    -0.082 A 
ATOM      9  C7  UNL d   1      -0.773   2.719   0.726  0.00  0.00     0.045 A 
ENDROOT
TORSDOF 0
ENDMDL
