MODEL 1
REMARK minimizedAffinity -1.81042135
REMARK minimizedRMSD -1
REMARK  0 active torsions:
REMARK  status: ('A' for Active; 'I' for Inactive)
ROOT
ATOM      1  C   UNL d   1       1.596   2.911  -0.128  0.00  0.00    -0.002 A 
ATOM      2  C1  UNL d   1       0.545   3.463   0.591  0.00  0.00     0.010 A 
ATOM      3  C2  UNL d   1      -0.516   2.665   1.023  0.00  0.00     0.041 A 
ATOM      4  C3  UNL d   1      -0.503   1.290   0.720  0.00  0.00    -0.075 A 
ATOM      5  S   UNL d   1      -1.694   0.119   1.147  0.00  0.00     0.015 SA
ATOM      6  C4  UNL d   1      -0.836  -1.142   0.387  0.00  0.00     0.022 A 
ATOM      7  C5  UNL d   1       0.333  -0.698  -0.185  0.00  0.00     0.026 A 
ATOM      8  C6  UNL d   1       0.545   0.710  -0.002  0.00  0.00    -0.082 A 
ATOM      9  C7  UNL d   1       1.606   1.546  -0.427  0.00  0.00     0.045 A 
ENDROOT
TORSDOF 0
ENDMDL
