MODEL 1
REMARK minimizedAffinity -5.0908761
REMARK minimizedRMSD -1
REMARK  0 active torsions:
REMARK  status: ('A' for Active; 'I' for Inactive)
ROOT
ATOM      1  C   UNL d   1       2.174   3.444   0.950  0.00  0.00    -0.002 A 
ATOM      2  C1  UNL d   1       2.855   2.237   0.888  0.00  0.00     0.010 A 
ATOM      3  C2  UNL d   1       2.180   1.055   0.580  0.00  0.00     0.041 A 
ATOM      4  C3  UNL d   1       0.794   1.107   0.331  0.00  0.00    -0.075 A 
ATOM      5  S   UNL d   1      -0.241  -0.213  -0.066  0.00  0.00     0.015 SA
ATOM      6  C4  UNL d   1      -1.612   0.794  -0.164  0.00  0.00     0.022 A 
ATOM      7  C5  UNL d   1      -1.306   2.109   0.097  0.00  0.00     0.026 A 
ATOM      8  C6  UNL d   1       0.086   2.311   0.386  0.00  0.00    -0.082 A 
ATOM      9  C7  UNL d   1       0.799   3.492   0.702  0.00  0.00     0.045 A 
ENDROOT
TORSDOF 0
ENDMDL
