MODEL 1
REMARK minimizedAffinity -2.73828626
REMARK minimizedRMSD -1
REMARK  0 active torsions:
REMARK  status: ('A' for Active; 'I' for Inactive)
ROOT
ATOM      1  C   UNL d   1       0.031   3.082   0.410  0.00  0.00    -0.002 A 
ATOM      2  C1  UNL d   1       1.065   2.462  -0.277  0.00  0.00     0.010 A 
ATOM      3  C2  UNL d   1       1.051   1.081  -0.485  0.00  0.00     0.041 A 
ATOM      4  C3  UNL d   1      -0.031   0.328   0.012  0.00  0.00    -0.075 A 
ATOM      5  S   UNL d   1      -0.261  -1.376  -0.125  0.00  0.00     0.015 SA
ATOM      6  C4  UNL d   1      -1.737  -1.319   0.725  0.00  0.00     0.022 A 
ATOM      7  C5  UNL d   1      -2.061  -0.041   1.111  0.00  0.00     0.026 A 
ATOM      8  C6  UNL d   1      -1.084   0.930   0.706  0.00  0.00    -0.082 A 
ATOM      9  C7  UNL d   1      -1.040   2.331   0.902  0.00  0.00     0.045 A 
ENDROOT
TORSDOF 0
ENDMDL
