MODEL 1
REMARK minimizedAffinity -5.11340952
REMARK minimizedRMSD -1
REMARK  0 active torsions:
REMARK  status: ('A' for Active; 'I' for Inactive)
ROOT
ATOM      1  C   UNL d   1       0.278   3.869   0.123  0.00  0.00    -0.002 A 
ATOM      2  C1  UNL d   1       1.541   3.313   0.268  0.00  0.00     0.010 A 
ATOM      3  C2  UNL d   1       1.706   1.927   0.314  0.00  0.00     0.041 A 
ATOM      4  C3  UNL d   1       0.569   1.102   0.210  0.00  0.00    -0.075 A 
ATOM      5  S   UNL d   1       0.529  -0.621   0.240  0.00  0.00     0.015 SA
ATOM      6  C4  UNL d   1      -1.165  -0.660   0.061  0.00  0.00     0.022 A 
ATOM      7  C5  UNL d   1      -1.704   0.603  -0.021  0.00  0.00     0.026 A 
ATOM      8  C6  UNL d   1      -0.713   1.639   0.062  0.00  0.00    -0.082 A 
ATOM      9  C7  UNL d   1      -0.847   3.047   0.020  0.00  0.00     0.045 A 
ENDROOT
TORSDOF 0
ENDMDL
