MODEL 1
REMARK minimizedAffinity -5.68223619
REMARK minimizedRMSD -1
REMARK  0 active torsions:
REMARK  status: ('A' for Active; 'I' for Inactive)
ROOT
ATOM      1  C   UNL d   1       1.222   3.582   0.030  0.00  0.00    -0.002 A 
ATOM      2  C1  UNL d   1       2.386   2.870   0.282  0.00  0.00     0.010 A 
ATOM      3  C2  UNL d   1       2.345   1.488   0.479  0.00  0.00     0.041 A 
ATOM      4  C3  UNL d   1       1.103   0.827   0.417  0.00  0.00    -0.075 A 
ATOM      5  S   UNL d   1       0.810  -0.859   0.626  0.00  0.00     0.015 SA
ATOM      6  C4  UNL d   1      -0.867  -0.674   0.385  0.00  0.00     0.022 A 
ATOM      7  C5  UNL d   1      -1.213   0.635   0.150  0.00  0.00     0.026 A 
ATOM      8  C6  UNL d   1      -0.083   1.522   0.164  0.00  0.00    -0.082 A 
ATOM      9  C7  UNL d   1      -0.009   2.923  -0.031  0.00  0.00     0.045 A 
ENDROOT
TORSDOF 0
ENDMDL
