MODEL 1
REMARK minimizedAffinity -4.10378218
REMARK minimizedRMSD -1
REMARK  0 active torsions:
REMARK  status: ('A' for Active; 'I' for Inactive)
ROOT
ATOM      1  C   UNL d   1       0.466   3.630  -0.116  0.00  0.00    -0.002 A 
ATOM      2  C1  UNL d   1       1.608   2.928  -0.476  0.00  0.00     0.010 A 
ATOM      3  C2  UNL d   1       1.606   1.532  -0.498  0.00  0.00     0.041 A 
ATOM      4  C3  UNL d   1       0.424   0.846  -0.152  0.00  0.00    -0.075 A 
ATOM      5  S   UNL d   1       0.188  -0.861  -0.110  0.00  0.00     0.015 SA
ATOM      6  C4  UNL d   1      -1.435  -0.699   0.385  0.00  0.00     0.022 A 
ATOM      7  C5  UNL d   1      -1.804   0.619   0.520  0.00  0.00     0.026 A 
ATOM      8  C6  UNL d   1      -0.738   1.531   0.212  0.00  0.00    -0.082 A 
ATOM      9  C7  UNL d   1      -0.704   2.946   0.226  0.00  0.00     0.045 A 
ENDROOT
TORSDOF 0
ENDMDL
