MODEL 1
REMARK minimizedAffinity -2.47119164
REMARK minimizedRMSD -1
REMARK  0 active torsions:
REMARK  status: ('A' for Active; 'I' for Inactive)
ROOT
ATOM      1  C   UNL d   1      -0.351  -4.026  -2.140  0.00  0.00    -0.002 A 
ATOM      2  C1  UNL d   1      -1.129  -4.234  -1.010  0.00  0.00     0.010 A 
ATOM      3  C2  UNL d   1      -1.198  -3.264  -0.007  0.00  0.00     0.041 A 
ATOM      4  C3  UNL d   1      -0.465  -2.071  -0.162  0.00  0.00    -0.075 A 
ATOM      5  S   UNL d   1      -0.398  -0.743   0.936  0.00  0.00     0.015 SA
ATOM      6  C4  UNL d   1       0.665   0.131  -0.069  0.00  0.00     0.022 A 
ATOM      7  C5  UNL d   1       0.971  -0.558  -1.219  0.00  0.00     0.026 A 
ATOM      8  C6  UNL d   1       0.325  -1.839  -1.291  0.00  0.00    -0.082 A 
ATOM      9  C7  UNL d   1       0.374  -2.841  -2.290  0.00  0.00     0.045 A 
ENDROOT
TORSDOF 0
ENDMDL
