MODEL 1
REMARK minimizedAffinity 3.51294279
REMARK minimizedRMSD -1
REMARK  0 active torsions:
REMARK  status: ('A' for Active; 'I' for Inactive)
ROOT
ATOM      1  C1  BNZ d   1      -4.935   3.889   3.863  0.00  0.00     0.000 A 
ATOM      2  C2  BNZ d   1      -5.645   4.940   3.346  0.00  0.00     0.000 A 
ATOM      3  C3  BNZ d   1      -6.000   6.000   4.133  0.00  0.00     0.000 A 
ATOM      4  C4  BNZ d   1      -5.680   5.989   5.443  0.00  0.00     0.000 A 
ATOM      5  C5  BNZ d   1      -4.973   4.932   5.982  0.00  0.00     0.000 A 
ATOM      6  C6  BNZ d   1      -4.584   3.885   5.178  0.00  0.00     0.000 A 
ENDROOT
TORSDOF 0
ENDMDL
