MODEL 1
REMARK minimizedAffinity 2.98551083
REMARK minimizedRMSD -1
REMARK  0 active torsions:
REMARK  status: ('A' for Active; 'I' for Inactive)
ROOT
ATOM      1  C1  BNZ d   1       3.678   0.095   1.023  0.00  0.00     0.000 A 
ATOM      2  C2  BNZ d   1       3.692   1.300   0.373  0.00  0.00     0.000 A 
ATOM      3  C3  BNZ d   1       4.858   1.995   0.213  0.00  0.00     0.000 A 
ATOM      4  C4  BNZ d   1       6.000   1.504   0.737  0.00  0.00     0.000 A 
ATOM      5  C5  BNZ d   1       6.000   0.295   1.403  0.00  0.00     0.000 A 
ATOM      6  C6  BNZ d   1       4.831  -0.421   1.528  0.00  0.00     0.000 A 
ENDROOT
TORSDOF 0
ENDMDL
