MODEL 1
REMARK minimizedAffinity 1.24295735
REMARK minimizedRMSD -1
REMARK  0 active torsions:
REMARK  status: ('A' for Active; 'I' for Inactive)
ROOT
ATOM      1  C1  BNZ d   1       1.874   1.423   1.670  0.00  0.00     0.000 A 
ATOM      2  C2  BNZ d   1       2.272   0.115   1.748  0.00  0.00     0.000 A 
ATOM      3  C3  BNZ d   1       3.520  -0.263   1.339  0.00  0.00     0.000 A 
ATOM      4  C4  BNZ d   1       4.353   0.659   0.815  0.00  0.00     0.000 A 
ATOM      5  C5  BNZ d   1       3.963   1.980   0.720  0.00  0.00     0.000 A 
ATOM      6  C6  BNZ d   1       2.720   2.364   1.169  0.00  0.00     0.000 A 
ENDROOT
TORSDOF 0
ENDMDL
