MODEL 1
REMARK minimizedAffinity 0.489550203
REMARK minimizedRMSD -1
REMARK  0 active torsions:
REMARK  status: ('A' for Active; 'I' for Inactive)
ROOT
ATOM      1  C1  BNZ d   1      -2.073  -2.748  -3.563  0.00  0.00     0.000 A 
ATOM      2  C2  BNZ d   1      -2.852  -3.772  -4.032  0.00  0.00     0.000 A 
ATOM      3  C3  BNZ d   1      -3.801  -4.351  -3.237  0.00  0.00     0.000 A 
ATOM      4  C4  BNZ d   1      -3.943  -3.933  -1.963  0.00  0.00     0.000 A 
ATOM      5  C5  BNZ d   1      -3.159  -2.908  -1.472  0.00  0.00     0.000 A 
ATOM      6  C6  BNZ d   1      -2.231  -2.301  -2.287  0.00  0.00     0.000 A 
ENDROOT
TORSDOF 0
ENDMDL
