MODEL 1
REMARK minimizedAffinity 0.334113479
REMARK minimizedRMSD -1
REMARK  0 active torsions:
REMARK  status: ('A' for Active; 'I' for Inactive)
ROOT
ATOM      1  C1  BNZ d   1       3.384   0.748   1.152  0.00  0.00     0.000 A 
ATOM      2  C2  BNZ d   1       4.308   0.050   1.883  0.00  0.00     0.000 A 
ATOM      3  C3  BNZ d   1       5.613   0.454   1.931  0.00  0.00     0.000 A 
ATOM      4  C4  BNZ d   1       6.000   1.531   1.217  0.00  0.00     0.000 A 
ATOM      5  C5  BNZ d   1       5.082   2.240   0.467  0.00  0.00     0.000 A 
ATOM      6  C6  BNZ d   1       3.761   1.852   0.453  0.00  0.00     0.000 A 
ENDROOT
TORSDOF 0
ENDMDL
