MODEL 1
REMARK minimizedAffinity -3.22816896
REMARK minimizedRMSD -1
REMARK  0 active torsions:
REMARK  status: ('A' for Active; 'I' for Inactive)
ROOT
ATOM      1  C1  BNZ d   1      -5.214   3.481   4.390  0.00  0.00     0.000 A 
ATOM      2  C2  BNZ d   1      -5.179   3.016   5.678  0.00  0.00     0.000 A 
ATOM      3  C3  BNZ d   1      -5.132   1.674   5.936  0.00  0.00     0.000 A 
ATOM      4  C4  BNZ d   1      -5.161   0.800   4.910  0.00  0.00     0.000 A 
ATOM      5  C5  BNZ d   1      -5.206   1.253   3.607  0.00  0.00     0.000 A 
ATOM      6  C6  BNZ d   1      -5.213   2.604   3.349  0.00  0.00     0.000 A 
ENDROOT
TORSDOF 0
ENDMDL
