MODEL 1
REMARK minimizedAffinity 7.50809908
REMARK minimizedRMSD -1
REMARK  0 active torsions:
REMARK  status: ('A' for Active; 'I' for Inactive)
ROOT
ATOM      1  C1  BNZ d   1      -1.151  -2.341  -0.398  0.00  0.00     0.000 A 
ATOM      2  C2  BNZ d   1      -2.311  -2.191  -1.111  0.00  0.00     0.000 A 
ATOM      3  C3  BNZ d   1      -2.508  -2.871  -2.280  0.00  0.00     0.000 A 
ATOM      4  C4  BNZ d   1      -1.530  -3.669  -2.755  0.00  0.00     0.000 A 
ATOM      5  C5  BNZ d   1      -0.351  -3.824  -2.053  0.00  0.00     0.000 A 
ATOM      6  C6  BNZ d   1      -0.172  -3.168  -0.857  0.00  0.00     0.000 A 
ENDROOT
TORSDOF 0
ENDMDL
