MODEL 1
REMARK minimizedAffinity 1.94290316
REMARK minimizedRMSD -1
REMARK  0 active torsions:
REMARK  status: ('A' for Active; 'I' for Inactive)
ROOT
ATOM      1  C1  BNZ d   1      -5.273  -1.607   3.738  0.00  0.00     0.000 A 
ATOM      2  C2  BNZ d   1      -5.889  -2.038   4.883  0.00  0.00     0.000 A 
ATOM      3  C3  BNZ d   1      -5.998  -1.218   5.971  0.00  0.00     0.000 A 
ATOM      4  C4  BNZ d   1      -5.457   0.016   5.928  0.00  0.00     0.000 A 
ATOM      5  C5  BNZ d   1      -4.824   0.462   4.784  0.00  0.00     0.000 A 
ATOM      6  C6  BNZ d   1      -4.750  -0.352   3.678  0.00  0.00     0.000 A 
ENDROOT
TORSDOF 0
ENDMDL
