MODEL 1
REMARK minimizedAffinity 7.86273861
REMARK minimizedRMSD -1
REMARK  0 active torsions:
REMARK  status: ('A' for Active; 'I' for Inactive)
ROOT
ATOM      1  C1  BNZ d   1       1.418   1.293   1.744  0.00  0.00     0.000 A 
ATOM      2  C2  BNZ d   1       1.653   1.159   0.401  0.00  0.00     0.000 A 
ATOM      3  C3  BNZ d   1       2.831   0.637  -0.054  0.00  0.00     0.000 A 
ATOM      4  C4  BNZ d   1       3.787   0.288   0.831  0.00  0.00     0.000 A 
ATOM      5  C5  BNZ d   1       3.569   0.426   2.187  0.00  0.00     0.000 A 
ATOM      6  C6  BNZ d   1       2.366   0.915   2.643  0.00  0.00     0.000 A 
ENDROOT
TORSDOF 0
ENDMDL
