MODEL 1
REMARK minimizedAffinity 5.95936918
REMARK minimizedRMSD -1
REMARK  0 active torsions:
REMARK  status: ('A' for Active; 'I' for Inactive)
ROOT
ATOM      1  C1  BNZ d   1      -0.350  -2.251  -6.000  0.00  0.00     0.000 A 
ATOM      2  C2  BNZ d   1       0.932  -2.734  -6.000  0.00  0.00     0.000 A 
ATOM      3  C3  BNZ d   1       1.441  -3.368  -4.902  0.00  0.00     0.000 A 
ATOM      4  C4  BNZ d   1       0.684  -3.483  -3.792  0.00  0.00     0.000 A 
ATOM      5  C5  BNZ d   1      -0.607  -2.994  -3.773  0.00  0.00     0.000 A 
ATOM      6  C6  BNZ d   1      -1.130  -2.390  -4.893  0.00  0.00     0.000 A 
ENDROOT
TORSDOF 0
ENDMDL
