MODEL 1
REMARK minimizedAffinity 9.92103386
REMARK minimizedRMSD -1
REMARK  0 active torsions:
REMARK  status: ('A' for Active; 'I' for Inactive)
ROOT
ATOM      1  C1  BNZ d   1      -2.133  -2.797  -1.011  0.00  0.00     0.000 A 
ATOM      2  C2  BNZ d   1      -1.727  -2.245  -2.196  0.00  0.00     0.000 A 
ATOM      3  C3  BNZ d   1      -2.040  -2.837  -3.388  0.00  0.00     0.000 A 
ATOM      4  C4  BNZ d   1      -2.724  -4.000  -3.391  0.00  0.00     0.000 A 
ATOM      5  C5  BNZ d   1      -3.133  -4.573  -2.203  0.00  0.00     0.000 A 
ATOM      6  C6  BNZ d   1      -2.849  -3.954  -1.008  0.00  0.00     0.000 A 
ENDROOT
TORSDOF 0
ENDMDL
