MODEL 1
REMARK minimizedAffinity 1.6937778
REMARK minimizedRMSD -1
REMARK  0 active torsions:
REMARK  status: ('A' for Active; 'I' for Inactive)
ROOT
ATOM      1  C1  BNZ d   1       4.154   1.757  -4.828  0.00  0.00     0.000 A 
ATOM      2  C2  BNZ d   1       4.080   2.468  -5.996  0.00  0.00     0.000 A 
ATOM      3  C3  BNZ d   1       4.236   3.826  -6.000  0.00  0.00     0.000 A 
ATOM      4  C4  BNZ d   1       4.425   4.474  -4.833  0.00  0.00     0.000 A 
ATOM      5  C5  BNZ d   1       4.493   3.773  -3.646  0.00  0.00     0.000 A 
ATOM      6  C6  BNZ d   1       4.374   2.402  -3.651  0.00  0.00     0.000 A 
ENDROOT
TORSDOF 0
ENDMDL
