MODEL 1
REMARK minimizedAffinity 3.66306996
REMARK minimizedRMSD -1
REMARK  0 active torsions:
REMARK  status: ('A' for Active; 'I' for Inactive)
ROOT
ATOM      1  C1  BNZ d   1       4.345  -0.075   1.716  0.00  0.00     0.000 A 
ATOM      2  C2  BNZ d   1       3.098  -0.428   2.158  0.00  0.00     0.000 A 
ATOM      3  C3  BNZ d   1       1.997   0.299   1.800  0.00  0.00     0.000 A 
ATOM      4  C4  BNZ d   1       2.149   1.399   1.034  0.00  0.00     0.000 A 
ATOM      5  C5  BNZ d   1       3.401   1.773   0.588  0.00  0.00     0.000 A 
ATOM      6  C6  BNZ d   1       4.502   1.016   0.919  0.00  0.00     0.000 A 
ENDROOT
TORSDOF 0
ENDMDL
