MODEL 1
REMARK minimizedAffinity 6.89737988
REMARK minimizedRMSD -1
REMARK  0 active torsions:
REMARK  status: ('A' for Active; 'I' for Inactive)
ROOT
ATOM      1  C1  BNZ d   1      -1.175   5.991  -2.619  0.00  0.00     0.000 A 
ATOM      2  C2  BNZ d   1      -0.379   4.921  -2.307  0.00  0.00     0.000 A 
ATOM      3  C3  BNZ d   1      -0.885   3.847  -1.629  0.00  0.00     0.000 A 
ATOM      4  C4  BNZ d   1      -2.173   3.862  -1.229  0.00  0.00     0.000 A 
ATOM      5  C5  BNZ d   1      -2.985   4.938  -1.528  0.00  0.00     0.000 A 
ATOM      6  C6  BNZ d   1      -2.483   5.999  -2.245  0.00  0.00     0.000 A 
ENDROOT
TORSDOF 0
ENDMDL
