MODEL 1
REMARK minimizedAffinity 3.6362834
REMARK minimizedRMSD -1
REMARK  0 active torsions:
REMARK  status: ('A' for Active; 'I' for Inactive)
ROOT
ATOM      1  C1  BNZ d   1      -2.759  -2.968  -2.225  0.00  0.00     0.000 A 
ATOM      2  C2  BNZ d   1      -2.691  -2.507  -0.937  0.00  0.00     0.000 A 
ATOM      3  C3  BNZ d   1      -1.600  -2.769  -0.157  0.00  0.00     0.000 A 
ATOM      4  C4  BNZ d   1      -0.598  -3.525  -0.650  0.00  0.00     0.000 A 
ATOM      5  C5  BNZ d   1      -0.656  -4.005  -1.943  0.00  0.00     0.000 A 
ATOM      6  C6  BNZ d   1      -1.738  -3.706  -2.739  0.00  0.00     0.000 A 
ENDROOT
TORSDOF 0
ENDMDL
