MODEL 1
REMARK minimizedAffinity 4.98473835
REMARK minimizedRMSD -1
REMARK  1 active torsions:
REMARK  status: ('A' for Active; 'I' for Inactive)
REMARK    1  A    between atoms: C1_2  and  C2_3 
ROOT
ATOM      1  C2  UNL d   1       3.119   1.881  -0.136  0.00  0.00    -0.073 A 
ATOM      2  C3  UNL d   1       1.745   1.635  -0.235  0.00  0.00    -0.002 A 
ATOM      3  C4  UNL d   1       1.052   1.964  -1.400  0.00  0.00     0.004 A 
ATOM      4  C5  UNL d   1       1.725   2.535  -2.480  0.00  0.00    -0.004 A 
ATOM      5  C6  UNL d   1       3.101   2.777  -2.405  0.00  0.00    -0.075 A 
ATOM      6  C7  UNL d   1       3.840   3.392  -3.557  0.00  0.00     0.076 C 
ATOM      7  C8  UNL d   1       3.789   2.446  -1.230  0.00  0.00     0.001 A 
ENDROOT
BRANCH   1   8
ATOM      8  C1  UNL d   1       3.873   1.521   1.118  0.00  0.00     0.053 C 
ATOM      9  C   UNL d   1       4.808   2.635   1.560  0.00  0.00     0.018 C 
ENDBRANCH   1   8
TORSDOF 1
ENDMDL
