MODEL 1
REMARK minimizedAffinity -0.105352849
REMARK minimizedRMSD -1
REMARK  1 active torsions:
REMARK  status: ('A' for Active; 'I' for Inactive)
REMARK    1  A    between atoms: C1_2  and  C2_3 
ROOT
ATOM      1  C2  UNL d   1      -3.972  -0.968   2.598  0.00  0.00    -0.073 A 
ATOM      2  C3  UNL d   1      -2.953  -1.255   1.683  0.00  0.00    -0.002 A 
ATOM      3  C4  UNL d   1      -1.697  -0.661   1.817  0.00  0.00     0.004 A 
ATOM      4  C5  UNL d   1      -1.446   0.219   2.869  0.00  0.00    -0.004 A 
ATOM      5  C6  UNL d   1      -2.448   0.509   3.801  0.00  0.00    -0.075 A 
ATOM      6  C7  UNL d   1      -2.194   1.455   4.937  0.00  0.00     0.076 C 
ATOM      7  C8  UNL d   1      -3.707  -0.089   3.658  0.00  0.00     0.001 A 
ENDROOT
BRANCH   1   8
ATOM      8  C1  UNL d   1      -5.327  -1.612   2.461  0.00  0.00     0.053 C 
ATOM      9  C   UNL d   1      -5.415  -2.924   3.224  0.00  0.00     0.018 C 
ENDBRANCH   1   8
TORSDOF 1
ENDMDL
