MODEL 1
REMARK minimizedAffinity 13.4624491
REMARK minimizedRMSD -1
REMARK  1 active torsions:
REMARK  status: ('A' for Active; 'I' for Inactive)
REMARK    1  A    between atoms: C1_2  and  C2_3 
ROOT
ATOM      1  C2  UNL d   1       2.791   2.234  -1.851  0.00  0.00    -0.073 A 
ATOM      2  C3  UNL d   1       1.662   3.061  -1.836  0.00  0.00    -0.002 A 
ATOM      3  C4  UNL d   1       1.405   3.922  -2.904  0.00  0.00     0.004 A 
ATOM      4  C5  UNL d   1       2.267   3.960  -3.999  0.00  0.00    -0.004 A 
ATOM      5  C6  UNL d   1       3.394   3.132  -4.038  0.00  0.00    -0.075 A 
ATOM      6  C7  UNL d   1       4.333   3.162  -5.208  0.00  0.00     0.076 C 
ATOM      7  C8  UNL d   1       3.648   2.272  -2.961  0.00  0.00     0.001 A 
ENDROOT
BRANCH   1   8
ATOM      8  C1  UNL d   1       3.070   1.298  -0.704  0.00  0.00     0.053 C 
ATOM      9  C   UNL d   1       3.129   2.030   0.628  0.00  0.00     0.018 C 
ENDBRANCH   1   8
TORSDOF 1
ENDMDL
