MODEL 1
REMARK minimizedAffinity 10.0982323
REMARK minimizedRMSD -1
REMARK  1 active torsions:
REMARK  status: ('A' for Active; 'I' for Inactive)
REMARK    1  A    between atoms: C1_2  and  C2_3 
ROOT
ATOM      1  C2  UNL d   1      -3.994  -0.114   1.533  0.00  0.00    -0.073 A 
ATOM      2  C3  UNL d   1      -3.034   0.546   2.308  0.00  0.00    -0.002 A 
ATOM      3  C4  UNL d   1      -1.780  -0.030   2.517  0.00  0.00     0.004 A 
ATOM      4  C5  UNL d   1      -1.471  -1.264   1.947  0.00  0.00    -0.004 A 
ATOM      5  C6  UNL d   1      -2.413  -1.933   1.159  0.00  0.00    -0.075 A 
ATOM      6  C7  UNL d   1      -2.096  -3.264   0.541  0.00  0.00     0.076 C 
ATOM      7  C8  UNL d   1      -3.671  -1.351   0.956  0.00  0.00     0.001 A 
ENDROOT
BRANCH   1   8
ATOM      8  C1  UNL d   1      -5.348   0.506   1.300  0.00  0.00     0.053 C 
ATOM      9  C   UNL d   1      -5.673   0.626  -0.181  0.00  0.00     0.018 C 
ENDBRANCH   1   8
TORSDOF 1
ENDMDL
