MODEL 1
REMARK minimizedAffinity 6.74661779
REMARK minimizedRMSD -1
REMARK  1 active torsions:
REMARK  status: ('A' for Active; 'I' for Inactive)
REMARK    1  A    between atoms: C1_2  and  C2_3 
ROOT
ATOM      1  C2  UNL d   1      -3.558   0.810   4.602  0.00  0.00    -0.073 A 
ATOM      2  C3  UNL d   1      -4.079   0.467   5.855  0.00  0.00    -0.002 A 
ATOM      3  C4  UNL d   1      -5.121  -0.456   5.957  0.00  0.00     0.004 A 
ATOM      4  C5  UNL d   1      -5.648  -1.049   4.810  0.00  0.00    -0.004 A 
ATOM      5  C6  UNL d   1      -5.133  -0.729   3.550  0.00  0.00    -0.075 A 
ATOM      6  C7  UNL d   1      -5.690  -1.357   2.306  0.00  0.00     0.076 C 
ATOM      7  C8  UNL d   1      -4.088   0.201   3.455  0.00  0.00     0.001 A 
ENDROOT
BRANCH   1   8
ATOM      8  C1  UNL d   1      -2.429   1.800   4.487  0.00  0.00     0.053 C 
ATOM      9  C   UNL d   1      -1.075   1.114   4.404  0.00  0.00     0.018 C 
ENDBRANCH   1   8
TORSDOF 1
ENDMDL
