MODEL 1
REMARK minimizedAffinity 13.8115616
REMARK minimizedRMSD -1
REMARK  1 active torsions:
REMARK  status: ('A' for Active; 'I' for Inactive)
REMARK    1  A    between atoms: C1_2  and  C2_3 
ROOT
ATOM      1  C2  UNL d   1      -3.870  -0.134   1.107  0.00  0.00    -0.073 A 
ATOM      2  C3  UNL d   1      -2.970  -1.024   0.508  0.00  0.00    -0.002 A 
ATOM      3  C4  UNL d   1      -1.721  -1.257   1.084  0.00  0.00     0.004 A 
ATOM      4  C5  UNL d   1      -1.360  -0.609   2.265  0.00  0.00    -0.004 A 
ATOM      5  C6  UNL d   1      -2.250   0.275   2.884  0.00  0.00    -0.075 A 
ATOM      6  C7  UNL d   1      -1.876   0.982   4.154  0.00  0.00     0.076 C 
ATOM      7  C8  UNL d   1      -3.502   0.506   2.299  0.00  0.00     0.001 A 
ENDROOT
BRANCH   1   8
ATOM      8  C1  UNL d   1      -5.223   0.115   0.492  0.00  0.00     0.053 C 
ATOM      9  C   UNL d   1      -5.233   1.364  -0.376  0.00  0.00     0.018 C 
ENDBRANCH   1   8
TORSDOF 1
ENDMDL
