MODEL 1
REMARK minimizedAffinity 7.26912212
REMARK minimizedRMSD -1
REMARK  1 active torsions:
REMARK  status: ('A' for Active; 'I' for Inactive)
REMARK    1  A    between atoms: C1_2  and  C2_3 
ROOT
ATOM      1  C2  UNL d   1       0.371  -5.468  -4.371  0.00  0.00    -0.073 A 
ATOM      2  C3  UNL d   1       0.061  -4.502  -3.408  0.00  0.00    -0.002 A 
ATOM      3  C4  UNL d   1      -1.242  -4.017  -3.290  0.00  0.00     0.004 A 
ATOM      4  C5  UNL d   1      -2.249  -4.497  -4.128  0.00  0.00    -0.004 A 
ATOM      5  C6  UNL d   1      -1.961  -5.471  -5.089  0.00  0.00    -0.075 A 
ATOM      6  C7  UNL d   1      -3.031  -5.997  -6.000  0.00  0.00     0.076 C 
ATOM      7  C8  UNL d   1      -0.649  -5.951  -5.203  0.00  0.00     0.001 A 
ENDROOT
BRANCH   1   8
ATOM      8  C1  UNL d   1       1.776  -5.999  -4.498  0.00  0.00     0.053 C 
ATOM      9  C   UNL d   1       2.632  -5.639  -3.294  0.00  0.00     0.018 C 
ENDBRANCH   1   8
TORSDOF 1
ENDMDL
