MODEL 1
REMARK minimizedAffinity 12.4233227
REMARK minimizedRMSD -1
REMARK  1 active torsions:
REMARK  status: ('A' for Active; 'I' for Inactive)
REMARK    1  A    between atoms: C1_2  and  C2_3 
ROOT
ATOM      1  C2  UNL d   1      -3.793  -2.378   2.351  0.00  0.00    -0.073 A 
ATOM      2  C3  UNL d   1      -2.923  -2.872   1.372  0.00  0.00    -0.002 A 
ATOM      3  C4  UNL d   1      -1.758  -2.176   1.048  0.00  0.00     0.004 A 
ATOM      4  C5  UNL d   1      -1.448  -0.984   1.703  0.00  0.00    -0.004 A 
ATOM      5  C6  UNL d   1      -2.298  -0.480   2.692  0.00  0.00    -0.075 A 
ATOM      6  C7  UNL d   1      -1.980   0.802   3.404  0.00  0.00     0.076 C 
ATOM      7  C8  UNL d   1      -3.468  -1.183   3.010  0.00  0.00     0.001 A 
ENDROOT
BRANCH   1   8
ATOM      8  C1  UNL d   1      -5.049  -3.129   2.709  0.00  0.00     0.053 C 
ATOM      9  C   UNL d   1      -4.947  -4.607   2.365  0.00  0.00     0.018 C 
ENDBRANCH   1   8
TORSDOF 1
ENDMDL
