MODEL 1
REMARK minimizedAffinity 11.3205805
REMARK minimizedRMSD -1
REMARK  1 active torsions:
REMARK  status: ('A' for Active; 'I' for Inactive)
REMARK    1  A    between atoms: C1_2  and  C2_3 
ROOT
ATOM      1  C2  UNL d   1       0.579  -2.429   1.960  0.00  0.00    -0.073 A 
ATOM      2  C3  UNL d   1      -0.268  -3.164   1.124  0.00  0.00    -0.002 A 
ATOM      3  C4  UNL d   1      -1.555  -2.703   0.843  0.00  0.00     0.004 A 
ATOM      4  C5  UNL d   1      -2.005  -1.501   1.389  0.00  0.00    -0.004 A 
ATOM      5  C6  UNL d   1      -1.169  -0.746   2.218  0.00  0.00    -0.075 A 
ATOM      6  C7  UNL d   1      -1.638   0.548   2.815  0.00  0.00     0.076 C 
ATOM      7  C8  UNL d   1       0.122  -1.217   2.497  0.00  0.00     0.001 A 
ENDROOT
BRANCH   1   8
ATOM      8  C1  UNL d   1       1.972  -2.919   2.260  0.00  0.00     0.053 C 
ATOM      9  C   UNL d   1       2.710  -1.991   3.212  0.00  0.00     0.018 C 
ENDBRANCH   1   8
TORSDOF 1
ENDMDL
