MODEL 1
REMARK minimizedAffinity 12.7568865
REMARK minimizedRMSD -1
REMARK  1 active torsions:
REMARK  status: ('A' for Active; 'I' for Inactive)
REMARK    1  A    between atoms: C1_2  and  C2_3 
ROOT
ATOM      1  C2  UNL d   1      -5.817  -0.365  -1.811  0.00  0.00    -0.073 A 
ATOM      2  C3  UNL d   1      -5.461   0.920  -2.238  0.00  0.00    -0.002 A 
ATOM      3  C4  UNL d   1      -5.288   1.948  -1.311  0.00  0.00     0.004 A 
ATOM      4  C5  UNL d   1      -5.462   1.701   0.051  0.00  0.00    -0.004 A 
ATOM      5  C6  UNL d   1      -5.806   0.422   0.498  0.00  0.00    -0.075 A 
ATOM      6  C7  UNL d   1      -5.999   0.141   1.959  0.00  0.00     0.076 C 
ATOM      7  C8  UNL d   1      -5.981  -0.605  -0.440  0.00  0.00     0.001 A 
ENDROOT
BRANCH   1   8
ATOM      8  C1  UNL d   1      -6.000  -1.479  -2.809  0.00  0.00     0.053 C 
ATOM      9  C   UNL d   1      -5.932  -0.978  -4.243  0.00  0.00     0.018 C 
ENDBRANCH   1   8
TORSDOF 1
ENDMDL
