MODEL 1
REMARK minimizedAffinity -2.0499599
REMARK minimizedRMSD -1
REMARK  2 active torsions:
REMARK  status: ('A' for Active; 'I' for Inactive)
REMARK    1  A    between atoms: C1_2  and  C2_3 
REMARK    2  A    between atoms: C2_3  and  C3_4 
ROOT
ATOM      1  C3  UNL d   1      -0.283  -0.369   0.302  0.00  0.00    -0.075 A 
ATOM      2  C4  UNL d   1       0.116   0.853  -0.257  0.00  0.00     0.002 A 
ATOM      3  C5  UNL d   1      -0.508   2.042   0.121  0.00  0.00     0.002 A 
ATOM      4  C6  UNL d   1      -1.542   2.023   1.054  0.00  0.00    -0.004 A 
ATOM      5  C7  UNL d   1      -1.958   0.813   1.604  0.00  0.00     0.002 A 
ATOM      6  C8  UNL d   1      -1.333  -0.378   1.230  0.00  0.00     0.002 A 
ENDROOT
BRANCH   1   7
ATOM      7  C2  UNL d   1       0.408  -1.656  -0.081  0.00  0.00     0.056 C 
BRANCH   7   8
ATOM      8  C1  UNL d   1      -0.541  -2.745  -0.592  0.00  0.00     0.007 C 
ATOM      9  C   UNL d   1      -0.058  -3.408  -1.876  0.00  0.00     0.009 C 
ENDBRANCH   7   8
ENDBRANCH   1   7
TORSDOF 2
ENDMDL
