MODEL 1
REMARK minimizedAffinity -4.95154524
REMARK minimizedRMSD -1
REMARK  2 active torsions:
REMARK  status: ('A' for Active; 'I' for Inactive)
REMARK    1  A    between atoms: C1_2  and  C2_3 
REMARK    2  A    between atoms: C2_3  and  C3_4 
ROOT
ATOM      1  C3  UNL d   1       0.002   0.129   0.153  0.00  0.00    -0.075 A 
ATOM      2  C4  UNL d   1      -1.024   1.001   0.545  0.00  0.00     0.002 A 
ATOM      3  C5  UNL d   1      -0.810   2.380   0.571  0.00  0.00     0.002 A 
ATOM      4  C6  UNL d   1       0.432   2.902   0.216  0.00  0.00    -0.004 A 
ATOM      5  C7  UNL d   1       1.463   2.043  -0.158  0.00  0.00     0.002 A 
ATOM      6  C8  UNL d   1       1.251   0.664  -0.189  0.00  0.00     0.002 A 
ENDROOT
BRANCH   1   7
ATOM      7  C2  UNL d   1      -0.232  -1.362   0.095  0.00  0.00     0.056 C 
BRANCH   7   8
ATOM      8  C1  UNL d   1      -0.095  -1.960  -1.309  0.00  0.00     0.007 C 
ATOM      9  C   UNL d   1      -1.042  -3.126  -1.560  0.00  0.00     0.009 C 
ENDBRANCH   7   8
ENDBRANCH   1   7
TORSDOF 2
ENDMDL
