MODEL 1
REMARK minimizedAffinity -5.05360985
REMARK minimizedRMSD -1
REMARK  2 active torsions:
REMARK  status: ('A' for Active; 'I' for Inactive)
REMARK    1  A    between atoms: C1_2  and  C2_3 
REMARK    2  A    between atoms: C2_3  and  C3_4 
ROOT
ATOM      1  C3  UNL d   1      -0.103   0.149   0.129  0.00  0.00    -0.075 A 
ATOM      2  C4  UNL d   1      -1.130   0.920   0.693  0.00  0.00     0.002 A 
ATOM      3  C5  UNL d   1      -1.034   2.312   0.725  0.00  0.00     0.002 A 
ATOM      4  C6  UNL d   1       0.091   2.948   0.205  0.00  0.00    -0.004 A 
ATOM      5  C7  UNL d   1       1.124   2.191  -0.342  0.00  0.00     0.002 A 
ATOM      6  C8  UNL d   1       1.030   0.799  -0.380  0.00  0.00     0.002 A 
ENDROOT
BRANCH   1   7
ATOM      7  C2  UNL d   1      -0.213  -1.356   0.065  0.00  0.00     0.056 C 
BRANCH   7   8
ATOM      8  C1  UNL d   1      -0.073  -1.931  -1.348  0.00  0.00     0.007 C 
ATOM      9  C   UNL d   1      -0.831  -3.238  -1.542  0.00  0.00     0.009 C 
ENDBRANCH   7   8
ENDBRANCH   1   7
TORSDOF 2
ENDMDL
