MODEL 1
REMARK minimizedAffinity -4.54515696
REMARK minimizedRMSD -1
REMARK  2 active torsions:
REMARK  status: ('A' for Active; 'I' for Inactive)
REMARK    1  A    between atoms: C1_2  and  C2_3 
REMARK    2  A    between atoms: C2_3  and  C3_4 
ROOT
ATOM      1  C3  UNL d   1       0.225  -0.896  -0.323  0.00  0.00    -0.075 A 
ATOM      2  C4  UNL d   1      -0.790  -0.060  -0.811  0.00  0.00     0.002 A 
ATOM      3  C5  UNL d   1      -0.653   1.328  -0.754  0.00  0.00     0.002 A 
ATOM      4  C6  UNL d   1       0.493   1.895  -0.200  0.00  0.00    -0.004 A 
ATOM      5  C7  UNL d   1       1.500   1.074   0.303  0.00  0.00     0.002 A 
ATOM      6  C8  UNL d   1       1.367  -0.314   0.243  0.00  0.00     0.002 A 
ENDROOT
BRANCH   1   7
ATOM      7  C2  UNL d   1       0.095  -2.398  -0.408  0.00  0.00     0.056 C 
BRANCH   7   8
ATOM      8  C1  UNL d   1       0.334  -2.966  -1.811  0.00  0.00     0.007 C 
ATOM      9  C   UNL d   1      -0.953  -3.345  -2.532  0.00  0.00     0.009 C 
ENDBRANCH   7   8
ENDBRANCH   1   7
TORSDOF 2
ENDMDL
