MODEL 1
REMARK minimizedAffinity -2.35492301
REMARK minimizedRMSD -1
REMARK  2 active torsions:
REMARK  status: ('A' for Active; 'I' for Inactive)
REMARK    1  A    between atoms: C1_2  and  C2_3 
REMARK    2  A    between atoms: C2_3  and  C3_4 
ROOT
ATOM      1  C3  UNL d   1       0.342   1.879   0.666  0.00  0.00    -0.075 A 
ATOM      2  C4  UNL d   1      -0.637   0.914   0.388  0.00  0.00     0.002 A 
ATOM      3  C5  UNL d   1      -0.288  -0.430   0.248  0.00  0.00     0.002 A 
ATOM      4  C6  UNL d   1       1.042  -0.823   0.374  0.00  0.00    -0.004 A 
ATOM      5  C7  UNL d   1       2.025   0.129   0.634  0.00  0.00     0.002 A 
ATOM      6  C8  UNL d   1       1.678   1.473   0.779  0.00  0.00     0.002 A 
ENDROOT
BRANCH   1   7
ATOM      7  C2  UNL d   1      -0.034   3.330   0.848  0.00  0.00     0.056 C 
BRANCH   7   8
ATOM      8  C1  UNL d   1      -0.814   3.616   2.135  0.00  0.00     0.007 C 
ATOM      9  C   UNL d   1       0.051   3.557   3.387  0.00  0.00     0.009 C 
ENDBRANCH   7   8
ENDBRANCH   1   7
TORSDOF 2
ENDMDL
