MODEL 1
REMARK minimizedAffinity -2.27703381
REMARK minimizedRMSD -1
REMARK  2 active torsions:
REMARK  status: ('A' for Active; 'I' for Inactive)
REMARK    1  A    between atoms: C1_2  and  C2_3 
REMARK    2  A    between atoms: C2_3  and  C3_4 
ROOT
ATOM      1  C3  UNL d   1       0.398  -0.201  -0.233  0.00  0.00    -0.075 A 
ATOM      2  C4  UNL d   1       1.781   0.033  -0.212  0.00  0.00     0.002 A 
ATOM      3  C5  UNL d   1       2.279   1.335  -0.172  0.00  0.00     0.002 A 
ATOM      4  C6  UNL d   1       1.403   2.419  -0.164  0.00  0.00    -0.004 A 
ATOM      5  C7  UNL d   1       0.028   2.199  -0.202  0.00  0.00     0.002 A 
ATOM      6  C8  UNL d   1      -0.473   0.896  -0.237  0.00  0.00     0.002 A 
ENDROOT
BRANCH   1   7
ATOM      7  C2  UNL d   1      -0.147  -1.609  -0.246  0.00  0.00     0.056 C 
BRANCH   7   8
ATOM      8  C1  UNL d   1       0.087  -2.356  -1.564  0.00  0.00     0.007 C 
ATOM      9  C   UNL d   1      -1.128  -3.148  -2.028  0.00  0.00     0.009 C 
ENDBRANCH   7   8
ENDBRANCH   1   7
TORSDOF 2
ENDMDL
