MODEL 1
REMARK minimizedAffinity -1.62895119
REMARK minimizedRMSD -1
REMARK  2 active torsions:
REMARK  status: ('A' for Active; 'I' for Inactive)
REMARK    1  A    between atoms: C1_2  and  C2_3 
REMARK    2  A    between atoms: C2_3  and  C3_4 
ROOT
ATOM      1  C3  UNL d   1      -0.270  -0.980  -0.176  0.00  0.00    -0.075 A 
ATOM      2  C4  UNL d   1      -1.230  -0.204   0.489  0.00  0.00     0.002 A 
ATOM      3  C5  UNL d   1      -0.974   1.134   0.790  0.00  0.00     0.002 A 
ATOM      4  C6  UNL d   1       0.245   1.709   0.440  0.00  0.00    -0.004 A 
ATOM      5  C7  UNL d   1       1.213   0.942  -0.206  0.00  0.00     0.002 A 
ATOM      6  C8  UNL d   1       0.958  -0.396  -0.512  0.00  0.00     0.002 A 
ENDROOT
BRANCH   1   7
ATOM      7  C2  UNL d   1      -0.553  -2.421  -0.530  0.00  0.00     0.056 C 
BRANCH   7   8
ATOM      8  C1  UNL d   1      -0.303  -2.761  -2.004  0.00  0.00     0.007 C 
ATOM      9  C   UNL d   1      -1.430  -3.571  -2.632  0.00  0.00     0.009 C 
ENDBRANCH   7   8
ENDBRANCH   1   7
TORSDOF 2
ENDMDL
