MODEL 1
REMARK minimizedAffinity -5.13981533
REMARK minimizedRMSD -1
REMARK  2 active torsions:
REMARK  status: ('A' for Active; 'I' for Inactive)
REMARK    1  A    between atoms: C1_2  and  C2_3 
REMARK    2  A    between atoms: C2_3  and  C3_4 
ROOT
ATOM      1  C3  UNL d   1       0.852   1.107   0.126  0.00  0.00    -0.075 A 
ATOM      2  C4  UNL d   1       2.189   1.116   0.549  0.00  0.00     0.002 A 
ATOM      3  C5  UNL d   1       2.852   2.322   0.779  0.00  0.00     0.002 A 
ATOM      4  C6  UNL d   1       2.191   3.532   0.578  0.00  0.00    -0.004 A 
ATOM      5  C7  UNL d   1       0.868   3.535   0.141  0.00  0.00     0.002 A 
ATOM      6  C8  UNL d   1       0.201   2.330  -0.085  0.00  0.00     0.002 A 
ENDROOT
BRANCH   1   7
ATOM      7  C2  UNL d   1       0.121  -0.195  -0.096  0.00  0.00     0.056 C 
BRANCH   7   8
ATOM      8  C1  UNL d   1      -0.597  -0.728   1.149  0.00  0.00     0.007 C 
ATOM      9  C   UNL d   1      -1.628   0.243   1.709  0.00  0.00     0.009 C 
ENDBRANCH   7   8
ENDBRANCH   1   7
TORSDOF 2
ENDMDL
