MODEL 1
REMARK minimizedAffinity -6.10201454
REMARK minimizedRMSD -1
REMARK  2 active torsions:
REMARK  status: ('A' for Active; 'I' for Inactive)
REMARK    1  A    between atoms: C1_2  and  C2_3 
REMARK    2  A    between atoms: C2_3  and  C3_4 
ROOT
ATOM      1  C3  UNL d   1       0.284  -0.255  -0.016  0.00  0.00    -0.075 A 
ATOM      2  C4  UNL d   1      -0.872   0.515   0.177  0.00  0.00     0.002 A 
ATOM      3  C5  UNL d   1      -0.818   1.907   0.090  0.00  0.00     0.002 A 
ATOM      4  C6  UNL d   1       0.390   2.545  -0.180  0.00  0.00    -0.004 A 
ATOM      5  C7  UNL d   1       1.548   1.791  -0.358  0.00  0.00     0.002 A 
ATOM      6  C8  UNL d   1       1.496   0.398  -0.276  0.00  0.00     0.002 A 
ENDROOT
BRANCH   1   7
ATOM      7  C2  UNL d   1       0.227  -1.763   0.047  0.00  0.00     0.056 C 
BRANCH   7   8
ATOM      8  C1  UNL d   1      -0.658  -2.400  -1.029  0.00  0.00     0.007 C 
ATOM      9  C   UNL d   1      -0.077  -2.279  -2.432  0.00  0.00     0.009 C 
ENDBRANCH   7   8
ENDBRANCH   1   7
TORSDOF 2
ENDMDL
