MODEL 1
REMARK minimizedAffinity -4.66886425
REMARK minimizedRMSD -1
REMARK  2 active torsions:
REMARK  status: ('A' for Active; 'I' for Inactive)
REMARK    1  A    between atoms: C1_2  and  C2_3 
REMARK    2  A    between atoms: C2_3  and  C3_4 
ROOT
ATOM      1  C3  UNL d   1       0.091  -0.049  -0.006  0.00  0.00    -0.075 A 
ATOM      2  C4  UNL d   1       0.992   0.945  -0.415  0.00  0.00     0.002 A 
ATOM      3  C5  UNL d   1       0.690   2.294  -0.232  0.00  0.00     0.002 A 
ATOM      4  C6  UNL d   1      -0.519   2.667   0.351  0.00  0.00    -0.004 A 
ATOM      5  C7  UNL d   1      -1.429   1.689   0.746  0.00  0.00     0.002 A 
ATOM      6  C8  UNL d   1      -1.127   0.338   0.568  0.00  0.00     0.002 A 
ENDROOT
BRANCH   1   7
ATOM      7  C2  UNL d   1       0.425  -1.512  -0.174  0.00  0.00     0.056 C 
BRANCH   7   8
ATOM      8  C1  UNL d   1      -0.708  -2.345  -0.781  0.00  0.00     0.007 C 
ATOM      9  C   UNL d   1      -0.287  -3.116  -2.025  0.00  0.00     0.009 C 
ENDBRANCH   7   8
ENDBRANCH   1   7
TORSDOF 2
ENDMDL
