MODEL 1
REMARK minimizedAffinity -4.13847303
REMARK minimizedRMSD -1
REMARK  2 active torsions:
REMARK  status: ('A' for Active; 'I' for Inactive)
REMARK    1  A    between atoms: C1_2  and  C2_3 
REMARK    2  A    between atoms: C2_3  and  C3_4 
ROOT
ATOM      1  C3  UNL d   1      -0.054   0.320   0.353  0.00  0.00    -0.075 A 
ATOM      2  C4  UNL d   1       1.090   0.955  -0.154  0.00  0.00     0.002 A 
ATOM      3  C5  UNL d   1       1.244   2.336  -0.037  0.00  0.00     0.002 A 
ATOM      4  C6  UNL d   1       0.254   3.101   0.577  0.00  0.00    -0.004 A 
ATOM      5  C7  UNL d   1      -0.893   2.484   1.069  0.00  0.00     0.002 A 
ATOM      6  C8  UNL d   1      -1.048   1.101   0.958  0.00  0.00     0.002 A 
ENDROOT
BRANCH   1   7
ATOM      7  C2  UNL d   1      -0.213  -1.178   0.257  0.00  0.00     0.056 C 
BRANCH   7   8
ATOM      8  C1  UNL d   1      -0.416  -1.693  -1.172  0.00  0.00     0.007 C 
ATOM      9  C   UNL d   1      -1.105  -3.050  -1.229  0.00  0.00     0.009 C 
ENDBRANCH   7   8
ENDBRANCH   1   7
TORSDOF 2
ENDMDL
