MODEL 1
REMARK minimizedAffinity 6.26702547
REMARK minimizedRMSD -1
REMARK  1 active torsions:
REMARK  status: ('A' for Active; 'I' for Inactive)
REMARK    1  A    between atoms: C1_2  and  C2_3 
ROOT
ATOM      1  C2  UNL d   1       2.910   2.148  -0.403  0.00  0.00    -0.073 A 
ATOM      2  C3  UNL d   1       1.847   2.891   0.122  0.00  0.00    -0.002 A 
ATOM      3  C4  UNL d   1       2.057   4.190   0.587  0.00  0.00     0.004 A 
ATOM      4  C5  UNL d   1       3.328   4.760   0.527  0.00  0.00    -0.004 A 
ATOM      5  C6  UNL d   1       4.401   4.038  -0.006  0.00  0.00    -0.075 A 
ATOM      6  C7  UNL d   1       5.775   4.636  -0.076  0.00  0.00     0.076 C 
ATOM      7  C8  UNL d   1       4.183   2.733  -0.468  0.00  0.00     0.001 A 
ENDROOT
BRANCH   1   8
ATOM      8  C1  UNL d   1       2.687   0.747  -0.913  0.00  0.00     0.053 C 
ATOM      9  C   UNL d   1       1.531   0.060  -0.203  0.00  0.00     0.018 C 
ENDBRANCH   1   8
TORSDOF 1
ENDMDL
