MODEL 1
REMARK minimizedAffinity -1.60851645
REMARK minimizedRMSD -1
REMARK  1 active torsions:
REMARK  status: ('A' for Active; 'I' for Inactive)
REMARK    1  A    between atoms: C1_2  and  C2_3 
ROOT
ATOM      1  C2  UNL d   1      -0.360  -5.959  -3.174  0.00  0.00    -0.073 A 
ATOM      2  C3  UNL d   1      -1.527  -5.995  -3.946  0.00  0.00    -0.002 A 
ATOM      3  C4  UNL d   1      -1.451  -5.990  -5.339  0.00  0.00     0.004 A 
ATOM      4  C5  UNL d   1      -0.210  -5.956  -5.974  0.00  0.00    -0.004 A 
ATOM      5  C6  UNL d   1       0.968  -5.931  -5.220  0.00  0.00    -0.075 A 
ATOM      6  C7  UNL d   1       2.311  -5.892  -5.888  0.00  0.00     0.076 C 
ATOM      7  C8  UNL d   1       0.883  -5.934  -3.822  0.00  0.00     0.001 A 
ENDROOT
BRANCH   1   8
ATOM      8  C1  UNL d   1      -0.437  -5.970  -1.669  0.00  0.00     0.053 C 
ATOM      9  C   UNL d   1      -1.874  -5.989  -1.172  0.00  0.00     0.018 C 
ENDBRANCH   1   8
TORSDOF 1
ENDMDL
