MODEL 1
REMARK minimizedAffinity 2.05424094
REMARK minimizedRMSD -1
REMARK  1 active torsions:
REMARK  status: ('A' for Active; 'I' for Inactive)
REMARK    1  A    between atoms: C1_2  and  C2_3 
ROOT
ATOM      1  C2  UNL d   1      -0.473  -5.965  -3.582  0.00  0.00    -0.073 A 
ATOM      2  C3  UNL d   1      -1.082  -5.926  -4.841  0.00  0.00    -0.002 A 
ATOM      3  C4  UNL d   1      -0.305  -5.903  -6.000  0.00  0.00     0.004 A 
ATOM      4  C5  UNL d   1       1.087  -5.925  -5.912  0.00  0.00    -0.004 A 
ATOM      5  C6  UNL d   1       1.714  -5.977  -4.663  0.00  0.00    -0.075 A 
ATOM      6  C7  UNL d   1       3.211  -5.999  -4.551  0.00  0.00     0.076 C 
ATOM      7  C8  UNL d   1       0.927  -5.997  -3.504  0.00  0.00     0.001 A 
ENDROOT
BRANCH   1   8
ATOM      8  C1  UNL d   1      -1.308  -5.997  -2.328  0.00  0.00     0.053 C 
ATOM      9  C   UNL d   1      -2.797  -5.981  -2.635  0.00  0.00     0.018 C 
ENDBRANCH   1   8
TORSDOF 1
ENDMDL
