MODEL 1
REMARK minimizedAffinity 6.20976162
REMARK minimizedRMSD -1
REMARK  1 active torsions:
REMARK  status: ('A' for Active; 'I' for Inactive)
REMARK    1  A    between atoms: C1_2  and  C2_3 
ROOT
ATOM      1  C2  UNL d   1       0.242  -1.577   3.102  0.00  0.00    -0.073 A 
ATOM      2  C3  UNL d   1      -0.299  -2.714   2.492  0.00  0.00    -0.002 A 
ATOM      3  C4  UNL d   1      -0.097  -2.948   1.131  0.00  0.00     0.004 A 
ATOM      4  C5  UNL d   1       0.651  -2.052   0.368  0.00  0.00    -0.004 A 
ATOM      5  C6  UNL d   1       1.210  -0.915   0.962  0.00  0.00    -0.075 A 
ATOM      6  C7  UNL d   1       2.016   0.060   0.155  0.00  0.00     0.076 C 
ATOM      7  C8  UNL d   1       1.001  -0.686   2.329  0.00  0.00     0.001 A 
ENDROOT
BRANCH   1   8
ATOM      8  C1  UNL d   1       0.033  -1.324   4.572  0.00  0.00     0.053 C 
ATOM      9  C   UNL d   1      -0.704  -2.469   5.248  0.00  0.00     0.018 C 
ENDBRANCH   1   8
TORSDOF 1
ENDMDL
