MODEL 1
REMARK minimizedAffinity 9.49204636
REMARK minimizedRMSD -1
REMARK  1 active torsions:
REMARK  status: ('A' for Active; 'I' for Inactive)
REMARK    1  A    between atoms: C1_2  and  C2_3 
ROOT
ATOM      1  C2  UNL d   1      -0.248  -1.816   0.793  0.00  0.00    -0.073 A 
ATOM      2  C3  UNL d   1       0.880  -0.993   0.696  0.00  0.00    -0.002 A 
ATOM      3  C4  UNL d   1       0.736   0.392   0.601  0.00  0.00     0.004 A 
ATOM      4  C5  UNL d   1      -0.534   0.968   0.608  0.00  0.00    -0.004 A 
ATOM      5  C6  UNL d   1      -1.673   0.163   0.716  0.00  0.00    -0.075 A 
ATOM      6  C7  UNL d   1      -3.047   0.767   0.724  0.00  0.00     0.076 C 
ATOM      7  C8  UNL d   1      -1.521  -1.227   0.809  0.00  0.00     0.001 A 
ENDROOT
BRANCH   1   8
ATOM      8  C1  UNL d   1      -0.098  -3.311   0.902  0.00  0.00     0.053 C 
ATOM      9  C   UNL d   1       1.338  -3.720   1.189  0.00  0.00     0.018 C 
ENDBRANCH   1   8
TORSDOF 1
ENDMDL
