MODEL 1
REMARK minimizedAffinity 0.0530573912
REMARK minimizedRMSD -1
REMARK  1 active torsions:
REMARK  status: ('A' for Active; 'I' for Inactive)
REMARK    1  A    between atoms: C1_2  and  C2_3 
ROOT
ATOM      1  C2  UNL d   1      -0.745  -5.746  -4.642  0.00  0.00    -0.073 A 
ATOM      2  C3  UNL d   1      -0.082  -5.307  -3.490  0.00  0.00    -0.002 A 
ATOM      3  C4  UNL d   1      -0.792  -5.087  -2.309  0.00  0.00     0.004 A 
ATOM      4  C5  UNL d   1      -2.168  -5.309  -2.265  0.00  0.00    -0.004 A 
ATOM      5  C6  UNL d   1      -2.847  -5.759  -3.403  0.00  0.00    -0.075 A 
ATOM      6  C7  UNL d   1      -4.327  -6.000  -3.373  0.00  0.00     0.076 C 
ATOM      7  C8  UNL d   1      -2.127  -5.975  -4.586  0.00  0.00     0.001 A 
ENDROOT
BRANCH   1   8
ATOM      8  C1  UNL d   1       0.019  -5.991  -5.918  0.00  0.00     0.053 C 
ATOM      9  C   UNL d   1       1.522  -5.981  -5.693  0.00  0.00     0.018 C 
ENDBRANCH   1   8
TORSDOF 1
ENDMDL
