MODEL 1
REMARK minimizedAffinity -0.00884295348
REMARK minimizedRMSD -1
REMARK  1 active torsions:
REMARK  status: ('A' for Active; 'I' for Inactive)
REMARK    1  A    between atoms: C1_2  and  C2_3 
ROOT
ATOM      1  C2  UNL d   1      -2.172  -5.688  -4.412  0.00  0.00    -0.073 A 
ATOM      2  C3  UNL d   1      -1.632  -5.556  -5.697  0.00  0.00    -0.002 A 
ATOM      3  C4  UNL d   1      -0.249  -5.559  -5.883  0.00  0.00     0.004 A 
ATOM      4  C5  UNL d   1       0.607  -5.700  -4.791  0.00  0.00    -0.004 A 
ATOM      5  C6  UNL d   1       0.086  -5.844  -3.501  0.00  0.00    -0.075 A 
ATOM      6  C7  UNL d   1       0.993  -5.995  -2.315  0.00  0.00     0.076 C 
ATOM      7  C8  UNL d   1      -1.303  -5.838  -3.321  0.00  0.00     0.001 A 
ENDROOT
BRANCH   1   8
ATOM      8  C1  UNL d   1      -3.664  -5.692  -4.206  0.00  0.00     0.053 C 
ATOM      9  C   UNL d   1      -4.039  -5.967  -2.758  0.00  0.00     0.018 C 
ENDBRANCH   1   8
TORSDOF 1
ENDMDL
