MODEL 1
REMARK minimizedAffinity 1.22507167
REMARK minimizedRMSD -1
REMARK  1 active torsions:
REMARK  status: ('A' for Active; 'I' for Inactive)
REMARK    1  A    between atoms: C1_2  and  C2_3 
ROOT
ATOM      1  C2  UNL d   1      -0.685  -4.999  -1.994  0.00  0.00    -0.073 A 
ATOM      2  C3  UNL d   1      -1.993  -5.493  -1.932  0.00  0.00    -0.002 A 
ATOM      3  C4  UNL d   1      -2.618  -5.980  -3.080  0.00  0.00     0.004 A 
ATOM      4  C5  UNL d   1      -1.941  -5.985  -4.300  0.00  0.00    -0.004 A 
ATOM      5  C6  UNL d   1      -0.630  -5.506  -4.380  0.00  0.00    -0.075 A 
ATOM      6  C7  UNL d   1       0.111  -5.502  -5.685  0.00  0.00     0.076 C 
ATOM      7  C8  UNL d   1      -0.010  -5.016  -3.223  0.00  0.00     0.001 A 
ENDROOT
BRANCH   1   8
ATOM      8  C1  UNL d   1      -0.004  -4.478  -0.756  0.00  0.00     0.053 C 
ATOM      9  C   UNL d   1      -0.944  -3.650   0.107  0.00  0.00     0.018 C 
ENDBRANCH   1   8
TORSDOF 1
ENDMDL
