MODEL 1
REMARK minimizedAffinity -1.14668131
REMARK minimizedRMSD -1
REMARK  1 active torsions:
REMARK  status: ('A' for Active; 'I' for Inactive)
REMARK    1  A    between atoms: C1_2  and  C2_3 
ROOT
ATOM      1  C2  UNL d   1      -0.583  -5.982  -4.384  0.00  0.00    -0.073 A 
ATOM      2  C3  UNL d   1       0.350  -5.990  -3.341  0.00  0.00    -0.002 A 
ATOM      3  C4  UNL d   1      -0.078  -5.989  -2.013  0.00  0.00     0.004 A 
ATOM      4  C5  UNL d   1      -1.440  -5.987  -1.714  0.00  0.00    -0.004 A 
ATOM      5  C6  UNL d   1      -2.388  -5.991  -2.743  0.00  0.00    -0.075 A 
ATOM      6  C7  UNL d   1      -3.857  -5.987  -2.438  0.00  0.00     0.076 C 
ATOM      7  C8  UNL d   1      -1.950  -5.989  -4.074  0.00  0.00     0.001 A 
ENDROOT
BRANCH   1   8
ATOM      8  C1  UNL d   1      -0.126  -5.989  -5.820  0.00  0.00     0.053 C 
ATOM      9  C   UNL d   1       1.385  -5.866  -5.938  0.00  0.00     0.018 C 
ENDBRANCH   1   8
TORSDOF 1
ENDMDL
