MODEL 1
REMARK minimizedAffinity 6.80392075
REMARK minimizedRMSD -1
REMARK  1 active torsions:
REMARK  status: ('A' for Active; 'I' for Inactive)
REMARK    1  A    between atoms: C1_2  and  C2_3 
ROOT
ATOM      1  C2  UNL d   1       0.135  -2.113   0.839  0.00  0.00    -0.073 A 
ATOM      2  C3  UNL d   1      -0.849  -1.134   0.663  0.00  0.00    -0.002 A 
ATOM      3  C4  UNL d   1      -0.488   0.190   0.408  0.00  0.00     0.004 A 
ATOM      4  C5  UNL d   1       0.857   0.546   0.318  0.00  0.00    -0.004 A 
ATOM      5  C6  UNL d   1       1.855  -0.421   0.478  0.00  0.00    -0.075 A 
ATOM      6  C7  UNL d   1       3.307  -0.054   0.387  0.00  0.00     0.076 C 
ATOM      7  C8  UNL d   1       1.485  -1.748   0.737  0.00  0.00     0.001 A 
ENDROOT
BRANCH   1   8
ATOM      8  C1  UNL d   1      -0.250  -3.545   1.108  0.00  0.00     0.053 C 
ATOM      9  C   UNL d   1      -1.118  -3.678   2.350  0.00  0.00     0.018 C 
ENDBRANCH   1   8
TORSDOF 1
ENDMDL
