MODEL 1
REMARK minimizedAffinity 8.44359016
REMARK minimizedRMSD -1
REMARK  1 active torsions:
REMARK  status: ('A' for Active; 'I' for Inactive)
REMARK    1  A    between atoms: C1_2  and  C2_3 
ROOT
ATOM      1  C2  UNL d   1       0.761  -0.477   0.319  0.00  0.00    -0.073 A 
ATOM      2  C3  UNL d   1       2.122  -0.804   0.298  0.00  0.00    -0.002 A 
ATOM      3  C4  UNL d   1       3.087   0.202   0.235  0.00  0.00     0.004 A 
ATOM      4  C5  UNL d   1       2.703   1.542   0.200  0.00  0.00    -0.004 A 
ATOM      5  C6  UNL d   1       1.348   1.889   0.233  0.00  0.00    -0.075 A 
ATOM      6  C7  UNL d   1       0.918   3.326   0.194  0.00  0.00     0.076 C 
ATOM      7  C8  UNL d   1       0.385   0.873   0.293  0.00  0.00     0.001 A 
ENDROOT
BRANCH   1   8
ATOM      8  C1  UNL d   1      -0.285  -1.560   0.393  0.00  0.00     0.053 C 
ATOM      9  C   UNL d   1       0.324  -2.921   0.692  0.00  0.00     0.018 C 
ENDBRANCH   1   8
TORSDOF 1
ENDMDL
