MODEL 1
REMARK minimizedAffinity 3.0183835
REMARK minimizedRMSD -1
REMARK  1 active torsions:
REMARK  status: ('A' for Active; 'I' for Inactive)
REMARK    1  A    between atoms: C1_2  and  C2_3 
ROOT
ATOM      1  C2  UNL d   1      -0.206  -5.811  -2.671  0.00  0.00    -0.073 A 
ATOM      2  C3  UNL d   1      -1.501  -5.891  -3.195  0.00  0.00    -0.002 A 
ATOM      3  C4  UNL d   1      -1.699  -5.980  -4.574  0.00  0.00     0.004 A 
ATOM      4  C5  UNL d   1      -0.607  -5.997  -5.440  0.00  0.00    -0.004 A 
ATOM      5  C6  UNL d   1       0.696  -5.930  -4.935  0.00  0.00    -0.075 A 
ATOM      6  C7  UNL d   1       1.882  -5.946  -5.854  0.00  0.00     0.076 C 
ATOM      7  C8  UNL d   1       0.887  -5.838  -3.549  0.00  0.00     0.001 A 
ENDROOT
BRANCH   1   8
ATOM      8  C1  UNL d   1       0.013  -5.721  -1.183  0.00  0.00     0.053 C 
ATOM      9  C   UNL d   1      -0.115  -4.295  -0.673  0.00  0.00     0.018 C 
ENDBRANCH   1   8
TORSDOF 1
ENDMDL
