MODEL 1
REMARK minimizedAffinity 7.8962121
REMARK minimizedRMSD -1
REMARK  1 active torsions:
REMARK  status: ('A' for Active; 'I' for Inactive)
REMARK    1  A    between atoms: C1_2  and  C2_3 
ROOT
ATOM      1  C2  UNL d   1      -0.566  -2.289   0.643  0.00  0.00    -0.073 A 
ATOM      2  C3  UNL d   1       0.517  -2.964   1.220  0.00  0.00    -0.002 A 
ATOM      3  C4  UNL d   1       1.728  -2.303   1.431  0.00  0.00     0.004 A 
ATOM      4  C5  UNL d   1       1.867  -0.962   1.074  0.00  0.00    -0.004 A 
ATOM      5  C6  UNL d   1       0.793  -0.268   0.508  0.00  0.00    -0.075 A 
ATOM      6  C7  UNL d   1       0.928   1.175   0.116  0.00  0.00     0.076 C 
ATOM      7  C8  UNL d   1      -0.419  -0.939   0.297  0.00  0.00     0.001 A 
ENDROOT
BRANCH   1   8
ATOM      8  C1  UNL d   1      -1.877  -2.997   0.420  0.00  0.00     0.053 C 
ATOM      9  C   UNL d   1      -3.038  -2.021   0.301  0.00  0.00     0.018 C 
ENDBRANCH   1   8
TORSDOF 1
ENDMDL
