MODEL 1
REMARK minimizedAffinity -2.87146592
REMARK minimizedRMSD -1
REMARK  2 active torsions:
REMARK  status: ('A' for Active; 'I' for Inactive)
REMARK    1  A    between atoms: C2'_3  and  C1'_4 
REMARK    2  A    between atoms: C1'_4  and  C1_5 
ROOT
ATOM      1  C1  I4B d   1       0.753   1.236  -0.084  0.00  0.00    -0.075 A 
ATOM      2  C2  I4B d   1       0.886   0.473   1.049  0.00  0.00     0.003 A 
ATOM      3  C3  I4B d   1      -0.108  -0.477   1.390  0.00  0.00     0.002 A 
ATOM      4  C4  I4B d   1      -1.235  -0.593   0.602  0.00  0.00    -0.004 A 
ATOM      5  C5  I4B d   1      -1.357   0.165  -0.559  0.00  0.00     0.002 A 
ATOM      6  C6  I4B d   1      -0.352   1.077  -0.911  0.00  0.00     0.003 A 
ENDROOT
BRANCH   1   7
ATOM      7  C1' I4B d   1       1.805   2.252  -0.396  0.00  0.00     0.060 C 
BRANCH   7   8
ATOM      8  C2' I4B d   1       1.415   3.551   0.280  0.00  0.00    -0.013 C 
ATOM      9  C4' I4B d   1      -0.076   3.640   0.471  0.00  0.00     0.013 C 
ATOM     10  C3' I4B d   1       2.135   3.623   1.594  0.00  0.00     0.013 C 
ENDBRANCH   7   8
ENDBRANCH   1   7
TORSDOF 2
ENDMDL
