MODEL 1
REMARK minimizedAffinity -1.54697442
REMARK minimizedRMSD -1
REMARK  2 active torsions:
REMARK  status: ('A' for Active; 'I' for Inactive)
REMARK    1  A    between atoms: C2'_3  and  C1'_4 
REMARK    2  A    between atoms: C1'_4  and  C1_5 
ROOT
ATOM      1  C1  I4B d   1      -0.103   0.339   0.159  0.00  0.00    -0.075 A 
ATOM      2  C2  I4B d   1      -0.110   0.334   1.531  0.00  0.00     0.003 A 
ATOM      3  C3  I4B d   1      -0.479  -0.837   2.237  0.00  0.00     0.002 A 
ATOM      4  C4  I4B d   1      -0.880  -1.956   1.536  0.00  0.00    -0.004 A 
ATOM      5  C5  I4B d   1      -0.850  -1.956   0.145  0.00  0.00     0.002 A 
ATOM      6  C6  I4B d   1      -0.447  -0.805  -0.549  0.00  0.00     0.003 A 
ENDROOT
BRANCH   1   7
ATOM      7  C1' I4B d   1       0.261   1.602  -0.555  0.00  0.00     0.060 C 
BRANCH   7   8
ATOM      8  C2' I4B d   1       0.964   2.511   0.433  0.00  0.00    -0.013 C 
ATOM      9  C4' I4B d   1       2.338   2.887  -0.055  0.00  0.00     0.013 C 
ATOM     10  C3' I4B d   1       0.109   3.727   0.633  0.00  0.00     0.013 C 
ENDBRANCH   7   8
ENDBRANCH   1   7
TORSDOF 2
ENDMDL
