MODEL 1
REMARK minimizedAffinity -3.1838491
REMARK minimizedRMSD -1
REMARK  2 active torsions:
REMARK  status: ('A' for Active; 'I' for Inactive)
REMARK    1  A    between atoms: C2'_3  and  C1'_4 
REMARK    2  A    between atoms: C1'_4  and  C1_5 
ROOT
ATOM      1  C1  I4B d   1       0.670  -1.220  -0.482  0.00  0.00    -0.075 A 
ATOM      2  C2  I4B d   1       0.777  -2.088   0.576  0.00  0.00     0.003 A 
ATOM      3  C3  I4B d   1       0.429  -3.452   0.417  0.00  0.00     0.002 A 
ATOM      4  C4  I4B d   1      -0.065  -3.890  -0.794  0.00  0.00    -0.004 A 
ATOM      5  C5  I4B d   1      -0.151  -3.014  -1.872  0.00  0.00     0.002 A 
ATOM      6  C6  I4B d   1       0.231  -1.673  -1.719  0.00  0.00     0.003 A 
ENDROOT
BRANCH   1   7
ATOM      7  C1' I4B d   1       1.015   0.220  -0.271  0.00  0.00     0.060 C 
BRANCH   7   8
ATOM      8  C2' I4B d   1      -0.280   0.999  -0.167  0.00  0.00    -0.013 C 
ATOM      9  C4' I4B d   1      -1.340   0.202   0.547  0.00  0.00     0.013 C 
ATOM     10  C3' I4B d   1       0.008   2.283   0.553  0.00  0.00     0.013 C 
ENDBRANCH   7   8
ENDBRANCH   1   7
TORSDOF 2
ENDMDL
