MODEL 1
REMARK minimizedAffinity 1.84406912
REMARK minimizedRMSD -1
REMARK  2 active torsions:
REMARK  status: ('A' for Active; 'I' for Inactive)
REMARK    1  A    between atoms: C2'_3  and  C1'_4 
REMARK    2  A    between atoms: C1'_4  and  C1_5 
ROOT
ATOM      1  C1  I4B d   1      -0.617   0.370  -0.315  0.00  0.00    -0.075 A 
ATOM      2  C2  I4B d   1       0.504   0.928   0.246  0.00  0.00     0.003 A 
ATOM      3  C3  I4B d   1       1.725   0.952  -0.472  0.00  0.00     0.002 A 
ATOM      4  C4  I4B d   1       1.791   0.365  -1.719  0.00  0.00    -0.004 A 
ATOM      5  C5  I4B d   1       0.647  -0.180  -2.296  0.00  0.00     0.002 A 
ATOM      6  C6  I4B d   1      -0.567  -0.167  -1.595  0.00  0.00     0.003 A 
ENDROOT
BRANCH   1   7
ATOM      7  C1' I4B d   1      -1.881   0.333   0.484  0.00  0.00     0.060 C 
BRANCH   7   8
ATOM      8  C2' I4B d   1      -1.630  -0.514   1.715  0.00  0.00    -0.013 C 
ATOM      9  C4' I4B d   1      -2.527  -0.102   2.852  0.00  0.00     0.013 C 
ATOM     10  C3' I4B d   1      -1.853  -1.950   1.342  0.00  0.00     0.013 C 
ENDBRANCH   7   8
ENDBRANCH   1   7
TORSDOF 2
ENDMDL
