MODEL 1
REMARK minimizedAffinity 8.18644524
REMARK minimizedRMSD -1
REMARK  2 active torsions:
REMARK  status: ('A' for Active; 'I' for Inactive)
REMARK    1  A    between atoms: C2'_3  and  C1'_4 
REMARK    2  A    between atoms: C1'_4  and  C1_5 
ROOT
ATOM      1  C1  I4B d   1      -1.366  -1.008   1.372  0.00  0.00    -0.075 A 
ATOM      2  C2  I4B d   1      -0.467  -0.311   0.604  0.00  0.00     0.003 A 
ATOM      3  C3  I4B d   1      -0.412   1.102   0.678  0.00  0.00     0.002 A 
ATOM      4  C4  I4B d   1      -1.302   1.776   1.490  0.00  0.00    -0.004 A 
ATOM      5  C5  I4B d   1      -2.197   1.066   2.284  0.00  0.00     0.002 A 
ATOM      6  C6  I4B d   1      -2.222  -0.336   2.235  0.00  0.00     0.003 A 
ENDROOT
BRANCH   1   7
ATOM      7  C1' I4B d   1      -1.420  -2.498   1.244  0.00  0.00     0.060 C 
BRANCH   7   8
ATOM      8  C2' I4B d   1      -1.984  -2.829  -0.123  0.00  0.00    -0.013 C 
ATOM      9  C4' I4B d   1      -1.277  -4.011  -0.732  0.00  0.00     0.013 C 
ATOM     10  C3' I4B d   1      -3.451  -3.098   0.034  0.00  0.00     0.013 C 
ENDBRANCH   7   8
ENDBRANCH   1   7
TORSDOF 2
ENDMDL
