MODEL 1
REMARK minimizedAffinity -1.20251942
REMARK minimizedRMSD -1
REMARK  2 active torsions:
REMARK  status: ('A' for Active; 'I' for Inactive)
REMARK    1  A    between atoms: C2'_3  and  C1'_4 
REMARK    2  A    between atoms: C1'_4  and  C1_5 
ROOT
ATOM      1  C1  I4B d   1       0.152   0.289   0.359  0.00  0.00    -0.075 A 
ATOM      2  C2  I4B d   1      -0.355  -0.344  -0.748  0.00  0.00     0.003 A 
ATOM      3  C3  I4B d   1      -1.066  -1.561  -0.610  0.00  0.00     0.002 A 
ATOM      4  C4  I4B d   1      -1.201  -2.131   0.639  0.00  0.00    -0.004 A 
ATOM      5  C5  I4B d   1      -0.706  -1.476   1.763  0.00  0.00     0.002 A 
ATOM      6  C6  I4B d   1      -0.036  -0.252   1.624  0.00  0.00     0.003 A 
ENDROOT
BRANCH   1   7
ATOM      7  C1' I4B d   1       0.926   1.555   0.173  0.00  0.00     0.060 C 
BRANCH   7   8
ATOM      8  C2' I4B d   1       0.251   2.639   0.989  0.00  0.00    -0.013 C 
ATOM      9  C4' I4B d   1       1.253   3.407   1.810  0.00  0.00     0.013 C 
ATOM     10  C3' I4B d   1      -0.480   3.543   0.043  0.00  0.00     0.013 C 
ENDBRANCH   7   8
ENDBRANCH   1   7
TORSDOF 2
ENDMDL
