MODEL 1
REMARK minimizedAffinity 1.68956852
REMARK minimizedRMSD -1
REMARK  2 active torsions:
REMARK  status: ('A' for Active; 'I' for Inactive)
REMARK    1  A    between atoms: C2'_3  and  C1'_4 
REMARK    2  A    between atoms: C1'_4  and  C1_5 
ROOT
ATOM      1  C1  I4B d   1      -0.561  -0.535  -0.960  0.00  0.00    -0.075 A 
ATOM      2  C2  I4B d   1      -1.219  -1.735  -0.846  0.00  0.00     0.003 A 
ATOM      3  C3  I4B d   1      -1.033  -2.745  -1.820  0.00  0.00     0.002 A 
ATOM      4  C4  I4B d   1      -0.226  -2.497  -2.911  0.00  0.00    -0.004 A 
ATOM      5  C5  I4B d   1       0.458  -1.289  -3.014  0.00  0.00     0.002 A 
ATOM      6  C6  I4B d   1       0.299  -0.306  -2.026  0.00  0.00     0.003 A 
ENDROOT
BRANCH   1   7
ATOM      7  C1' I4B d   1      -0.806   0.522   0.069  0.00  0.00     0.060 C 
BRANCH   7   8
ATOM      8  C2' I4B d   1       0.498   0.772   0.800  0.00  0.00    -0.013 C 
ATOM      9  C4' I4B d   1       0.700   2.241   1.067  0.00  0.00     0.013 C 
ATOM     10  C3' I4B d   1       0.470  -0.012   2.078  0.00  0.00     0.013 C 
ENDBRANCH   7   8
ENDBRANCH   1   7
TORSDOF 2
ENDMDL
