MODEL 1
REMARK minimizedAffinity -2.97635126
REMARK minimizedRMSD -1
REMARK  2 active torsions:
REMARK  status: ('A' for Active; 'I' for Inactive)
REMARK    1  A    between atoms: C2'_3  and  C1'_4 
REMARK    2  A    between atoms: C1'_4  and  C1_5 
ROOT
ATOM      1  C1  I4B d   1       0.084   0.670   0.290  0.00  0.00    -0.075 A 
ATOM      2  C2  I4B d   1       0.357   0.465   1.620  0.00  0.00     0.003 A 
ATOM      3  C3  I4B d   1       0.102  -0.795   2.214  0.00  0.00     0.002 A 
ATOM      4  C4  I4B d   1      -0.468  -1.799   1.459  0.00  0.00    -0.004 A 
ATOM      5  C5  I4B d   1      -0.723  -1.597   0.106  0.00  0.00     0.002 A 
ATOM      6  C6  I4B d   1      -0.434  -0.359  -0.486  0.00  0.00     0.003 A 
ENDROOT
BRANCH   1   7
ATOM      7  C1' I4B d   1       0.335   2.022  -0.297  0.00  0.00     0.060 C 
BRANCH   7   8
ATOM      8  C2' I4B d   1       1.251   2.777   0.644  0.00  0.00    -0.013 C 
ATOM      9  C4' I4B d   1       2.570   3.088  -0.013  0.00  0.00     0.013 C 
ATOM     10  C3' I4B d   1       0.548   4.032   1.068  0.00  0.00     0.013 C 
ENDBRANCH   7   8
ENDBRANCH   1   7
TORSDOF 2
ENDMDL
