MODEL 1
REMARK minimizedAffinity -3.23842192
REMARK minimizedRMSD -1
REMARK  2 active torsions:
REMARK  status: ('A' for Active; 'I' for Inactive)
REMARK    1  A    between atoms: C2'_3  and  C1'_4 
REMARK    2  A    between atoms: C1'_4  and  C1_5 
ROOT
ATOM      1  C1  I4B d   1       0.075   0.835  -0.256  0.00  0.00    -0.075 A 
ATOM      2  C2  I4B d   1      -0.514   0.362   0.890  0.00  0.00     0.003 A 
ATOM      3  C3  I4B d   1      -0.918  -0.992   0.977  0.00  0.00     0.002 A 
ATOM      4  C4  I4B d   1      -0.762  -1.820  -0.116  0.00  0.00    -0.004 A 
ATOM      5  C5  I4B d   1      -0.144  -1.345  -1.269  0.00  0.00     0.002 A 
ATOM      6  C6  I4B d   1       0.289  -0.013  -1.336  0.00  0.00     0.003 A 
ENDROOT
BRANCH   1   7
ATOM      7  C1' I4B d   1       0.460   2.278  -0.326  0.00  0.00     0.060 C 
BRANCH   7   8
ATOM      8  C2' I4B d   1       1.932   2.386   0.016  0.00  0.00    -0.013 C 
ATOM      9  C4' I4B d   1       2.644   3.323  -0.924  0.00  0.00     0.013 C 
ATOM     10  C3' I4B d   1       2.044   2.856   1.436  0.00  0.00     0.013 C 
ENDBRANCH   7   8
ENDBRANCH   1   7
TORSDOF 2
ENDMDL
