MODEL 1
REMARK minimizedAffinity -2.88588357
REMARK minimizedRMSD -1
REMARK  2 active torsions:
REMARK  status: ('A' for Active; 'I' for Inactive)
REMARK    1  A    between atoms: C2'_3  and  C1'_4 
REMARK    2  A    between atoms: C1'_4  and  C1_5 
ROOT
ATOM      1  C1  I4B d   1      -0.099   0.631   0.142  0.00  0.00    -0.075 A 
ATOM      2  C2  I4B d   1      -0.246  -0.093   1.299  0.00  0.00     0.003 A 
ATOM      3  C3  I4B d   1      -0.605  -1.462   1.243  0.00  0.00     0.002 A 
ATOM      4  C4  I4B d   1      -0.855  -2.049   0.019  0.00  0.00    -0.004 A 
ATOM      5  C5  I4B d   1      -0.684  -1.319  -1.154  0.00  0.00     0.002 A 
ATOM      6  C6  I4B d   1      -0.291   0.026  -1.093  0.00  0.00     0.003 A 
ENDROOT
BRANCH   1   7
ATOM      7  C1' I4B d   1       0.249   2.082   0.240  0.00  0.00     0.060 C 
BRANCH   7   8
ATOM      8  C2' I4B d   1       1.758   2.196   0.322  0.00  0.00    -0.013 C 
ATOM      9  C4' I4B d   1       2.340   2.685  -0.978  0.00  0.00     0.013 C 
ATOM     10  C3' I4B d   1       2.091   3.128   1.449  0.00  0.00     0.013 C 
ENDBRANCH   7   8
ENDBRANCH   1   7
TORSDOF 2
ENDMDL
