MODEL 1
REMARK minimizedAffinity -3.96895957
REMARK minimizedRMSD -1
REMARK  2 active torsions:
REMARK  status: ('A' for Active; 'I' for Inactive)
REMARK    1  A    between atoms: C2'_3  and  C1'_4 
REMARK    2  A    between atoms: C1'_4  and  C1_5 
ROOT
ATOM      1  C1  I4B d   1       0.681   1.986   0.046  0.00  0.00    -0.075 A 
ATOM      2  C2  I4B d   1       0.307   3.098   0.759  0.00  0.00     0.003 A 
ATOM      3  C3  I4B d   1       1.214   4.172   0.931  0.00  0.00     0.002 A 
ATOM      4  C4  I4B d   1       2.491   4.071   0.419  0.00  0.00    -0.004 A 
ATOM      5  C5  I4B d   1       2.861   2.953  -0.323  0.00  0.00     0.002 A 
ATOM      6  C6  I4B d   1       1.946   1.909  -0.522  0.00  0.00     0.003 A 
ENDROOT
BRANCH   1   7
ATOM      7  C1' I4B d   1      -0.291   0.856  -0.089  0.00  0.00     0.060 C 
BRANCH   7   8
ATOM      8  C2' I4B d   1       0.289  -0.346   0.629  0.00  0.00    -0.013 C 
ATOM      9  C4' I4B d   1       0.798   0.029   1.996  0.00  0.00     0.013 C 
ATOM     10  C3' I4B d   1      -0.781  -1.393   0.718  0.00  0.00     0.013 C 
ENDBRANCH   7   8
ENDBRANCH   1   7
TORSDOF 2
ENDMDL
