MODEL 1
REMARK minimizedAffinity -2.78186297
REMARK minimizedRMSD -1
REMARK  2 active torsions:
REMARK  status: ('A' for Active; 'I' for Inactive)
REMARK    1  A    between atoms: C2'_3  and  C1'_4 
REMARK    2  A    between atoms: C1'_4  and  C1_5 
ROOT
ATOM      1  C1  I4B d   1      -0.273  -1.763  -0.982  0.00  0.00    -0.075 A 
ATOM      2  C2  I4B d   1       0.127  -0.457  -0.854  0.00  0.00     0.003 A 
ATOM      3  C3  I4B d   1      -0.037   0.221   0.379  0.00  0.00     0.002 A 
ATOM      4  C4  I4B d   1      -0.647  -0.426   1.434  0.00  0.00    -0.004 A 
ATOM      5  C5  I4B d   1      -1.032  -1.758   1.309  0.00  0.00     0.002 A 
ATOM      6  C6  I4B d   1      -0.833  -2.435   0.097  0.00  0.00     0.003 A 
ENDROOT
BRANCH   1   7
ATOM      7  C1' I4B d   1      -0.116  -2.438  -2.308  0.00  0.00     0.060 C 
BRANCH   7   8
ATOM      8  C2' I4B d   1      -1.070  -3.614  -2.349  0.00  0.00    -0.013 C 
ATOM      9  C4' I4B d   1      -1.730  -3.734  -3.698  0.00  0.00     0.013 C 
ATOM     10  C3' I4B d   1      -0.293  -4.853  -2.015  0.00  0.00     0.013 C 
ENDBRANCH   7   8
ENDBRANCH   1   7
TORSDOF 2
ENDMDL
