MODEL 1
REMARK minimizedAffinity -3.18614435
REMARK minimizedRMSD -1
REMARK  2 active torsions:
REMARK  status: ('A' for Active; 'I' for Inactive)
REMARK    1  A    between atoms: C2'_3  and  C1'_4 
REMARK    2  A    between atoms: C1'_4  and  C1_5 
ROOT
ATOM      1  C1  I4B d   1      -0.180   0.516  -0.352  0.00  0.00    -0.075 A 
ATOM      2  C2  I4B d   1      -0.699   0.423   0.915  0.00  0.00     0.003 A 
ATOM      3  C3  I4B d   1      -0.995  -0.844   1.473  0.00  0.00     0.002 A 
ATOM      4  C4  I4B d   1      -0.805  -1.982   0.716  0.00  0.00    -0.004 A 
ATOM      5  C5  I4B d   1      -0.257  -1.888  -0.560  0.00  0.00     0.002 A 
ATOM      6  C6  I4B d   1       0.069  -0.632  -1.093  0.00  0.00     0.003 A 
ENDROOT
BRANCH   1   7
ATOM      7  C1' I4B d   1       0.091   1.871  -0.923  0.00  0.00     0.060 C 
BRANCH   7   8
ATOM      8  C2' I4B d   1       0.877   2.661   0.103  0.00  0.00    -0.013 C 
ATOM      9  C4' I4B d   1       2.251   3.006  -0.410  0.00  0.00     0.013 C 
ATOM     10  C3' I4B d   1       0.097   3.898   0.433  0.00  0.00     0.013 C 
ENDBRANCH   7   8
ENDBRANCH   1   7
TORSDOF 2
ENDMDL
