MODEL 1
REMARK minimizedAffinity -2.90298867
REMARK minimizedRMSD -1
REMARK  2 active torsions:
REMARK  status: ('A' for Active; 'I' for Inactive)
REMARK    1  A    between atoms: C2'_3  and  C1'_4 
REMARK    2  A    between atoms: C1'_4  and  C1_5 
ROOT
ATOM      1  C1  I4B d   1       0.144   0.432   0.295  0.00  0.00    -0.075 A 
ATOM      2  C2  I4B d   1      -0.680  -0.337  -0.488  0.00  0.00     0.003 A 
ATOM      3  C3  I4B d   1      -1.345  -1.459   0.064  0.00  0.00     0.002 A 
ATOM      4  C4  I4B d   1      -1.119  -1.802   1.382  0.00  0.00    -0.004 A 
ATOM      5  C5  I4B d   1      -0.301  -1.008   2.180  0.00  0.00     0.002 A 
ATOM      6  C6  I4B d   1       0.325   0.124   1.637  0.00  0.00     0.003 A 
ENDROOT
BRANCH   1   7
ATOM      7  C1' I4B d   1       0.857   1.590  -0.329  0.00  0.00     0.060 C 
BRANCH   7   8
ATOM      8  C2' I4B d   1       1.245   2.550   0.777  0.00  0.00    -0.013 C 
ATOM      9  C4' I4B d   1       2.675   3.000   0.631  0.00  0.00     0.013 C 
ATOM     10  C3' I4B d   1       0.303   3.716   0.730  0.00  0.00     0.013 C 
ENDBRANCH   7   8
ENDBRANCH   1   7
TORSDOF 2
ENDMDL
