MODEL 1
REMARK minimizedAffinity -3.68424034
REMARK minimizedRMSD -1
REMARK  1 active torsions:
REMARK  status: ('A' for Active; 'I' for Inactive)
REMARK    1  A    between atoms: C1_2  and  C2_3 
ROOT
ATOM      1  C2  UNL d   1      -0.439  -0.315   0.528  0.00  0.00    -0.073 A 
ATOM      2  C3  UNL d   1       0.403  -1.413   0.739  0.00  0.00    -0.002 A 
ATOM      3  C4  UNL d   1       1.495  -1.635  -0.101  0.00  0.00     0.004 A 
ATOM      4  C5  UNL d   1       1.762  -0.758  -1.152  0.00  0.00    -0.004 A 
ATOM      5  C6  UNL d   1       0.939   0.351  -1.372  0.00  0.00    -0.075 A 
ATOM      6  C7  UNL d   1       1.211   1.302  -2.500  0.00  0.00     0.076 C 
ATOM      7  C8  UNL d   1      -0.158   0.566  -0.526  0.00  0.00     0.001 A 
ENDROOT
BRANCH   1   8
ATOM      8  C1  UNL d   1      -1.616  -0.068   1.436  0.00  0.00     0.053 C 
ATOM      9  C   UNL d   1      -1.565   1.311   2.074  0.00  0.00     0.018 C 
ENDBRANCH   1   8
TORSDOF 1
ENDMDL
