MODEL 1
REMARK minimizedAffinity -5.61341286
REMARK minimizedRMSD -1
REMARK  1 active torsions:
REMARK  status: ('A' for Active; 'I' for Inactive)
REMARK    1  A    between atoms: C1_2  and  C2_3 
ROOT
ATOM      1  C2  UNL d   1       1.068   0.482  -1.471  0.00  0.00    -0.073 A 
ATOM      2  C3  UNL d   1       1.755  -0.735  -1.401  0.00  0.00    -0.002 A 
ATOM      3  C4  UNL d   1       1.359  -1.716  -0.491  0.00  0.00     0.004 A 
ATOM      4  C5  UNL d   1       0.270  -1.494   0.352  0.00  0.00    -0.004 A 
ATOM      5  C6  UNL d   1      -0.436  -0.289   0.288  0.00  0.00    -0.075 A 
ATOM      6  C7  UNL d   1      -1.609  -0.033   1.189  0.00  0.00     0.076 C 
ATOM      7  C8  UNL d   1      -0.031   0.693  -0.626  0.00  0.00     0.001 A 
ENDROOT
BRANCH   1   8
ATOM      8  C1  UNL d   1       1.488   1.542  -2.457  0.00  0.00     0.053 C 
ATOM      9  C   UNL d   1       2.304   0.964  -3.602  0.00  0.00     0.018 C 
ENDBRANCH   1   8
TORSDOF 1
ENDMDL
