MODEL 1
REMARK minimizedAffinity -1.55600619
REMARK minimizedRMSD -1
REMARK  1 active torsions:
REMARK  status: ('A' for Active; 'I' for Inactive)
REMARK    1  A    between atoms: C1_2  and  C2_3 
ROOT
ATOM      1  C2  UNL d   1      -0.458   0.250   0.242  0.00  0.00    -0.073 A 
ATOM      2  C3  UNL d   1       0.135  -1.012   0.357  0.00  0.00    -0.002 A 
ATOM      3  C4  UNL d   1       1.115  -1.415  -0.552  0.00  0.00     0.004 A 
ATOM      4  C5  UNL d   1       1.515  -0.560  -1.578  0.00  0.00    -0.004 A 
ATOM      5  C6  UNL d   1       0.942   0.709  -1.703  0.00  0.00    -0.075 A 
ATOM      6  C7  UNL d   1       1.359   1.640  -2.803  0.00  0.00     0.076 C 
ATOM      7  C8  UNL d   1      -0.043   1.106  -0.788  0.00  0.00     0.001 A 
ENDROOT
BRANCH   1   8
ATOM      8  C1  UNL d   1      -1.511   0.693   1.225  0.00  0.00     0.053 C 
ATOM      9  C   UNL d   1      -0.913   1.068   2.571  0.00  0.00     0.018 C 
ENDBRANCH   1   8
TORSDOF 1
ENDMDL
