MODEL 1
REMARK minimizedAffinity -1.15370059
REMARK minimizedRMSD -1
REMARK  1 active torsions:
REMARK  status: ('A' for Active; 'I' for Inactive)
REMARK    1  A    between atoms: C1_2  and  C2_3 
ROOT
ATOM      1  C2  UNL d   1      -1.790   0.720   1.322  0.00  0.00    -0.073 A 
ATOM      2  C3  UNL d   1      -1.531   1.977   1.879  0.00  0.00    -0.002 A 
ATOM      3  C4  UNL d   1      -1.867   2.243   3.208  0.00  0.00     0.004 A 
ATOM      4  C5  UNL d   1      -2.457   1.253   3.994  0.00  0.00    -0.004 A 
ATOM      5  C6  UNL d   1      -2.712  -0.014   3.459  0.00  0.00    -0.075 A 
ATOM      6  C7  UNL d   1      -3.348  -1.089   4.291  0.00  0.00     0.076 C 
ATOM      7  C8  UNL d   1      -2.375  -0.272   2.123  0.00  0.00     0.001 A 
ENDROOT
BRANCH   1   8
ATOM      8  C1  UNL d   1      -1.424   0.426  -0.110  0.00  0.00     0.053 C 
ATOM      9  C   UNL d   1      -0.064  -0.244  -0.224  0.00  0.00     0.018 C 
ENDBRANCH   1   8
TORSDOF 1
ENDMDL
