MODEL 1
REMARK minimizedAffinity 2.62545133
REMARK minimizedRMSD -1
REMARK  1 active torsions:
REMARK  status: ('A' for Active; 'I' for Inactive)
REMARK    1  A    between atoms: C1_2  and  C2_3 
ROOT
ATOM      1  C2  UNL d   1      -0.050  -0.299   1.428  0.00  0.00    -0.073 A 
ATOM      2  C3  UNL d   1      -0.484   0.144   0.173  0.00  0.00    -0.002 A 
ATOM      3  C4  UNL d   1      -0.361  -0.680  -0.946  0.00  0.00     0.004 A 
ATOM      4  C5  UNL d   1       0.190  -1.955  -0.822  0.00  0.00    -0.004 A 
ATOM      5  C6  UNL d   1       0.619  -2.420   0.426  0.00  0.00    -0.075 A 
ATOM      6  C7  UNL d   1       1.215  -3.789   0.576  0.00  0.00     0.076 C 
ATOM      7  C8  UNL d   1       0.494  -1.586   1.545  0.00  0.00     0.001 A 
ENDROOT
BRANCH   1   8
ATOM      8  C1  UNL d   1      -0.186   0.585   2.641  0.00  0.00     0.053 C 
ATOM      9  C   UNL d   1      -1.402   0.220   3.478  0.00  0.00     0.018 C 
ENDBRANCH   1   8
TORSDOF 1
ENDMDL
