MODEL 1
REMARK minimizedAffinity -2.92126656
REMARK minimizedRMSD -1
REMARK  1 active torsions:
REMARK  status: ('A' for Active; 'I' for Inactive)
REMARK    1  A    between atoms: C1_2  and  C2_3 
ROOT
ATOM      1  C2  UNL d   1       0.661  -0.372  -0.377  0.00  0.00    -0.073 A 
ATOM      2  C3  UNL d   1       1.618  -1.289  -0.828  0.00  0.00    -0.002 A 
ATOM      3  C4  UNL d   1       2.417  -0.988  -1.932  0.00  0.00     0.004 A 
ATOM      4  C5  UNL d   1       2.272   0.233  -2.592  0.00  0.00    -0.004 A 
ATOM      5  C6  UNL d   1       1.330   1.167  -2.149  0.00  0.00    -0.075 A 
ATOM      6  C7  UNL d   1       1.161   2.484  -2.848  0.00  0.00     0.076 C 
ATOM      7  C8  UNL d   1       0.530   0.856  -1.041  0.00  0.00     0.001 A 
ENDROOT
BRANCH   1   8
ATOM      8  C1  UNL d   1      -0.199  -0.689   0.819  0.00  0.00     0.053 C 
ATOM      9  C   UNL d   1      -1.310   0.331   1.009  0.00  0.00     0.018 C 
ENDBRANCH   1   8
TORSDOF 1
ENDMDL
