MODEL 1
REMARK minimizedAffinity -3.94134927
REMARK minimizedRMSD -1
REMARK  1 active torsions:
REMARK  status: ('A' for Active; 'I' for Inactive)
REMARK    1  A    between atoms: C1_2  and  C2_3 
ROOT
ATOM      1  C2  UNL d   1       0.041  -0.775   0.518  0.00  0.00    -0.073 A 
ATOM      2  C3  UNL d   1      -0.674  -0.131  -0.499  0.00  0.00    -0.002 A 
ATOM      3  C4  UNL d   1      -1.583   0.881  -0.189  0.00  0.00     0.004 A 
ATOM      4  C5  UNL d   1      -1.782   1.264   1.137  0.00  0.00    -0.004 A 
ATOM      5  C6  UNL d   1      -1.069   0.641   2.166  0.00  0.00    -0.075 A 
ATOM      6  C7  UNL d   1      -1.273   1.040   3.598  0.00  0.00     0.076 C 
ATOM      7  C8  UNL d   1      -0.160  -0.377   1.847  0.00  0.00     0.001 A 
ENDROOT
BRANCH   1   8
ATOM      8  C1  UNL d   1       1.028  -1.864   0.187  0.00  0.00     0.053 C 
ATOM      9  C   UNL d   1       1.560  -1.740  -1.231  0.00  0.00     0.018 C 
ENDBRANCH   1   8
TORSDOF 1
ENDMDL
