MODEL 1
REMARK minimizedAffinity -4.5669899
REMARK minimizedRMSD -1
REMARK  1 active torsions:
REMARK  status: ('A' for Active; 'I' for Inactive)
REMARK    1  A    between atoms: C1_2  and  C2_3 
ROOT
ATOM      1  C2  UNL d   1      -0.271  -0.085  -0.092  0.00  0.00    -0.073 A 
ATOM      2  C3  UNL d   1       0.462  -1.249   0.163  0.00  0.00    -0.002 A 
ATOM      3  C4  UNL d   1       1.518  -1.615  -0.673  0.00  0.00     0.004 A 
ATOM      4  C5  UNL d   1       1.856  -0.818  -1.767  0.00  0.00    -0.004 A 
ATOM      5  C6  UNL d   1       1.143   0.356  -2.031  0.00  0.00    -0.075 A 
ATOM      6  C7  UNL d   1       1.492   1.223  -3.205  0.00  0.00     0.076 C 
ATOM      7  C8  UNL d   1       0.082   0.715  -1.189  0.00  0.00     0.001 A 
ENDROOT
BRANCH   1   8
ATOM      8  C1  UNL d   1      -1.408   0.317   0.811  0.00  0.00     0.053 C 
ATOM      9  C   UNL d   1      -0.913   0.870   2.139  0.00  0.00     0.018 C 
ENDBRANCH   1   8
TORSDOF 1
ENDMDL
