MODEL 1
REMARK minimizedAffinity -4.52686691
REMARK minimizedRMSD -1
REMARK  1 active torsions:
REMARK  status: ('A' for Active; 'I' for Inactive)
REMARK    1  A    between atoms: C1_2  and  C2_3 
ROOT
ATOM      1  C2  UNL d   1      -0.264   0.360  -0.079  0.00  0.00    -0.073 A 
ATOM      2  C3  UNL d   1       0.356  -0.870   0.167  0.00  0.00    -0.002 A 
ATOM      3  C4  UNL d   1       1.352  -1.340  -0.690  0.00  0.00     0.004 A 
ATOM      4  C5  UNL d   1       1.742  -0.584  -1.795  0.00  0.00    -0.004 A 
ATOM      5  C6  UNL d   1       1.142   0.653  -2.051  0.00  0.00    -0.075 A 
ATOM      6  C7  UNL d   1       1.549   1.477  -3.237  0.00  0.00     0.076 C 
ATOM      7  C8  UNL d   1       0.141   1.117  -1.187  0.00  0.00     0.001 A 
ENDROOT
BRANCH   1   8
ATOM      8  C1  UNL d   1      -1.335   0.876   0.847  0.00  0.00     0.053 C 
ATOM      9  C   UNL d   1      -1.012   0.594   2.306  0.00  0.00     0.018 C 
ENDBRANCH   1   8
TORSDOF 1
ENDMDL
