MODEL 1
REMARK minimizedAffinity -1.81519639
REMARK minimizedRMSD -1
REMARK  1 active torsions:
REMARK  status: ('A' for Active; 'I' for Inactive)
REMARK    1  A    between atoms: C1_2  and  C2_3 
ROOT
ATOM      1  C2  UNL d   1      -1.228   0.450   1.676  0.00  0.00    -0.073 A 
ATOM      2  C3  UNL d   1      -2.404   0.679   0.953  0.00  0.00    -0.002 A 
ATOM      3  C4  UNL d   1      -2.384   0.678  -0.443  0.00  0.00     0.004 A 
ATOM      4  C5  UNL d   1      -1.192   0.441  -1.128  0.00  0.00    -0.004 A 
ATOM      5  C6  UNL d   1      -0.009   0.198  -0.422  0.00  0.00    -0.075 A 
ATOM      6  C7  UNL d   1       1.281  -0.056  -1.144  0.00  0.00     0.076 C 
ATOM      7  C8  UNL d   1      -0.037   0.204   0.979  0.00  0.00     0.001 A 
ENDROOT
BRANCH   1   8
ATOM      8  C1  UNL d   1      -1.246   0.444   3.183  0.00  0.00     0.053 C 
ATOM      9  C   UNL d   1      -2.187   1.497   3.746  0.00  0.00     0.018 C 
ENDBRANCH   1   8
TORSDOF 1
ENDMDL
