MODEL 1
REMARK minimizedAffinity -2.30704021
REMARK minimizedRMSD -1
REMARK  1 active torsions:
REMARK  status: ('A' for Active; 'I' for Inactive)
REMARK    1  A    between atoms: C1_2  and  C2_3 
ROOT
ATOM      1  C2  UNL d   1      -1.517   0.095   0.814  0.00  0.00    -0.073 A 
ATOM      2  C3  UNL d   1      -0.850  -1.135   0.839  0.00  0.00    -0.002 A 
ATOM      3  C4  UNL d   1       0.247  -1.360   0.006  0.00  0.00     0.004 A 
ATOM      4  C5  UNL d   1       0.692  -0.356  -0.854  0.00  0.00    -0.004 A 
ATOM      5  C6  UNL d   1       0.046   0.884  -0.885  0.00  0.00    -0.075 A 
ATOM      6  C7  UNL d   1       0.512   1.974  -1.806  0.00  0.00     0.076 C 
ATOM      7  C8  UNL d   1      -1.056   1.101  -0.047  0.00  0.00     0.001 A 
ENDROOT
BRANCH   1   8
ATOM      8  C1  UNL d   1      -2.697   0.344   1.717  0.00  0.00     0.053 C 
ATOM      9  C   UNL d   1      -2.269   0.766   3.113  0.00  0.00     0.018 C 
ENDBRANCH   1   8
TORSDOF 1
ENDMDL
