MODEL 1
REMARK minimizedAffinity -2.76568747
REMARK minimizedRMSD -1
REMARK  1 active torsions:
REMARK  status: ('A' for Active; 'I' for Inactive)
REMARK    1  A    between atoms: C1_2  and  C2_3 
ROOT
ATOM      1  C2  UNL d   1       0.191  -0.814  -0.101  0.00  0.00    -0.073 A 
ATOM      2  C3  UNL d   1      -0.058   0.163  -1.072  0.00  0.00    -0.002 A 
ATOM      3  C4  UNL d   1      -0.939   1.212  -0.806  0.00  0.00     0.004 A 
ATOM      4  C5  UNL d   1      -1.573   1.300   0.433  0.00  0.00    -0.004 A 
ATOM      5  C6  UNL d   1      -1.328   0.340   1.420  0.00  0.00    -0.075 A 
ATOM      6  C7  UNL d   1      -2.003   0.419   2.758  0.00  0.00     0.076 C 
ATOM      7  C8  UNL d   1      -0.444  -0.712   1.145  0.00  0.00     0.001 A 
ENDROOT
BRANCH   1   8
ATOM      8  C1  UNL d   1       1.145  -1.946  -0.381  0.00  0.00     0.053 C 
ATOM      9  C   UNL d   1       1.635  -1.935  -1.821  0.00  0.00     0.018 C 
ENDBRANCH   1   8
TORSDOF 1
ENDMDL
