MODEL 1
REMARK minimizedAffinity 7.94116163
REMARK minimizedRMSD -1
REMARK  1 active torsions:
REMARK  status: ('A' for Active; 'I' for Inactive)
REMARK    1  A    between atoms: C1_2  and  C2_3 
ROOT
ATOM      1  C2  UNL d   1      -0.089  -2.437  -0.473  0.00  0.00    -0.073 A 
ATOM      2  C3  UNL d   1      -0.046  -3.548   0.376  0.00  0.00    -0.002 A 
ATOM      3  C4  UNL d   1       1.173  -4.006   0.877  0.00  0.00     0.004 A 
ATOM      4  C5  UNL d   1       2.359  -3.355   0.541  0.00  0.00    -0.004 A 
ATOM      5  C6  UNL d   1       2.336  -2.235  -0.296  0.00  0.00    -0.075 A 
ATOM      6  C7  UNL d   1       3.604  -1.524  -0.670  0.00  0.00     0.076 C 
ATOM      7  C8  UNL d   1       1.108  -1.783  -0.798  0.00  0.00     0.001 A 
ENDROOT
BRANCH   1   8
ATOM      8  C1  UNL d   1      -1.403  -1.934  -1.011  0.00  0.00     0.053 C 
ATOM      9  C   UNL d   1      -2.178  -1.138   0.027  0.00  0.00     0.018 C 
ENDBRANCH   1   8
TORSDOF 1
ENDMDL
