MODEL 1
REMARK minimizedAffinity 6.03432894
REMARK minimizedRMSD -1
REMARK  0 active torsions:
REMARK  status: ('A' for Active; 'I' for Inactive)
ROOT
ATOM      1  C   UNL d   1      -4.149   2.932   2.741  0.00  0.00     0.078 C 
ATOM      2  C1  UNL d   1      -3.210   1.793   2.476  0.00  0.00    -0.077 A 
ATOM      3  C2  UNL d   1      -3.330   0.583   3.170  0.00  0.00    -0.001 A 
ATOM      4  C3  UNL d   1      -2.443  -0.465   2.920  0.00  0.00     0.003 A 
ATOM      5  C4  UNL d   1      -1.429  -0.314   1.976  0.00  0.00    -0.005 A 
ATOM      6  C5  UNL d   1      -1.301   0.887   1.282  0.00  0.00     0.003 A 
ATOM      7  C6  UNL d   1      -2.187   1.937   1.531  0.00  0.00    -0.001 A 
ENDROOT
TORSDOF 0
ENDMDL
