MODEL 1
REMARK minimizedAffinity 9.05306911
REMARK minimizedRMSD -1
REMARK  0 active torsions:
REMARK  status: ('A' for Active; 'I' for Inactive)
ROOT
ATOM      1  C   UNL d   1      -1.118  -2.726  -5.984  0.00  0.00     0.078 C 
ATOM      2  C1  UNL d   1      -0.292  -1.750  -5.201  0.00  0.00    -0.077 A 
ATOM      3  C2  UNL d   1      -0.269  -0.391  -5.537  0.00  0.00    -0.001 A 
ATOM      4  C3  UNL d   1       0.513   0.504  -4.806  0.00  0.00     0.003 A 
ATOM      5  C4  UNL d   1       1.279   0.050  -3.734  0.00  0.00    -0.005 A 
ATOM      6  C5  UNL d   1       1.265  -1.301  -3.394  0.00  0.00     0.003 A 
ATOM      7  C6  UNL d   1       0.484  -2.198  -4.124  0.00  0.00    -0.001 A 
ENDROOT
TORSDOF 0
ENDMDL
