MODEL 1
REMARK minimizedAffinity 1.72555816
REMARK minimizedRMSD -1
REMARK  0 active torsions:
REMARK  status: ('A' for Active; 'I' for Inactive)
ROOT
ATOM      1  C   UNL d   1      -3.932   2.661   2.543  0.00  0.00     0.078 C 
ATOM      2  C1  UNL d   1      -2.999   1.517   2.282  0.00  0.00    -0.077 A 
ATOM      3  C2  UNL d   1      -2.916   0.436   3.169  0.00  0.00    -0.001 A 
ATOM      4  C3  UNL d   1      -2.035  -0.617   2.918  0.00  0.00     0.003 A 
ATOM      5  C4  UNL d   1      -1.230  -0.600   1.781  0.00  0.00    -0.005 A 
ATOM      6  C5  UNL d   1      -1.303   0.472   0.894  0.00  0.00     0.003 A 
ATOM      7  C6  UNL d   1      -2.183   1.526   1.143  0.00  0.00    -0.001 A 
ENDROOT
TORSDOF 0
ENDMDL
