MODEL 1
REMARK minimizedAffinity 4.50772238
REMARK minimizedRMSD -1
REMARK  0 active torsions:
REMARK  status: ('A' for Active; 'I' for Inactive)
ROOT
ATOM      1  C   UNL d   1      -0.743   1.411   0.034  0.00  0.00     0.078 C 
ATOM      2  C1  UNL d   1      -1.578   0.967   1.198  0.00  0.00    -0.077 A 
ATOM      3  C2  UNL d   1      -2.635   1.754   1.669  0.00  0.00    -0.001 A 
ATOM      4  C3  UNL d   1      -3.398   1.333   2.760  0.00  0.00     0.003 A 
ATOM      5  C4  UNL d   1      -3.110   0.124   3.389  0.00  0.00    -0.005 A 
ATOM      6  C5  UNL d   1      -2.058  -0.665   2.929  0.00  0.00     0.003 A 
ATOM      7  C6  UNL d   1      -1.294  -0.246   1.838  0.00  0.00    -0.001 A 
ENDROOT
TORSDOF 0
ENDMDL
