MODEL 1
REMARK minimizedAffinity 3.49624538
REMARK minimizedRMSD -1
REMARK  0 active torsions:
REMARK  status: ('A' for Active; 'I' for Inactive)
ROOT
ATOM      1  C   UNL d   1       3.541   0.944  -6.000  0.00  0.00     0.078 C 
ATOM      2  C1  UNL d   1       3.345   2.158  -5.141  0.00  0.00    -0.077 A 
ATOM      3  C2  UNL d   1       2.503   2.123  -4.024  0.00  0.00    -0.001 A 
ATOM      4  C3  UNL d   1       2.323   3.263  -3.239  0.00  0.00     0.003 A 
ATOM      5  C4  UNL d   1       2.981   4.447  -3.564  0.00  0.00    -0.005 A 
ATOM      6  C5  UNL d   1       3.820   4.492  -4.675  0.00  0.00     0.003 A 
ATOM      7  C6  UNL d   1       4.001   3.353  -5.461  0.00  0.00    -0.001 A 
ENDROOT
TORSDOF 0
ENDMDL
