MODEL 1
REMARK minimizedAffinity 2.02329159
REMARK minimizedRMSD -1
REMARK  0 active torsions:
REMARK  status: ('A' for Active; 'I' for Inactive)
ROOT
ATOM      1  C   UNL d   1      -6.000  -2.615  -1.022  0.00  0.00     0.078 C 
ATOM      2  C1  UNL d   1      -5.742  -2.552  -2.498  0.00  0.00    -0.077 A 
ATOM      3  C2  UNL d   1      -5.969  -3.665  -3.317  0.00  0.00    -0.001 A 
ATOM      4  C3  UNL d   1      -5.715  -3.596  -4.688  0.00  0.00     0.003 A 
ATOM      5  C4  UNL d   1      -5.232  -2.417  -5.251  0.00  0.00    -0.005 A 
ATOM      6  C5  UNL d   1      -5.001  -1.305  -4.444  0.00  0.00     0.003 A 
ATOM      7  C6  UNL d   1      -5.254  -1.372  -3.073  0.00  0.00    -0.001 A 
ENDROOT
TORSDOF 0
ENDMDL
