MODEL 1
REMARK minimizedAffinity 8.75263023
REMARK minimizedRMSD -1
REMARK  0 active torsions:
REMARK  status: ('A' for Active; 'I' for Inactive)
ROOT
ATOM      1  C   UNL d   1      -3.826  -2.589   5.334  0.00  0.00     0.078 C 
ATOM      2  C1  UNL d   1      -4.578  -3.762   4.780  0.00  0.00    -0.077 A 
ATOM      3  C2  UNL d   1      -5.094  -3.738   3.478  0.00  0.00    -0.001 A 
ATOM      4  C3  UNL d   1      -5.801  -4.834   2.979  0.00  0.00     0.003 A 
ATOM      5  C4  UNL d   1      -5.998  -5.960   3.775  0.00  0.00    -0.005 A 
ATOM      6  C5  UNL d   1      -5.490  -5.992   5.072  0.00  0.00     0.003 A 
ATOM      7  C6  UNL d   1      -4.784  -4.898   5.573  0.00  0.00    -0.001 A 
ENDROOT
TORSDOF 0
ENDMDL
