MODEL 1
REMARK minimizedAffinity 4.10748529
REMARK minimizedRMSD -1
REMARK  0 active torsions:
REMARK  status: ('A' for Active; 'I' for Inactive)
ROOT
ATOM      1  C   UNL d   1      -3.482   1.725   1.294  0.00  0.00     0.078 C 
ATOM      2  C1  UNL d   1      -2.450   0.879   1.976  0.00  0.00    -0.077 A 
ATOM      3  C2  UNL d   1      -2.818  -0.245   2.726  0.00  0.00    -0.001 A 
ATOM      4  C3  UNL d   1      -1.847  -1.018   3.364  0.00  0.00     0.003 A 
ATOM      5  C4  UNL d   1      -0.500  -0.675   3.259  0.00  0.00    -0.005 A 
ATOM      6  C5  UNL d   1      -0.124   0.442   2.517  0.00  0.00     0.003 A 
ATOM      7  C6  UNL d   1      -1.094   1.217   1.878  0.00  0.00    -0.001 A 
ENDROOT
TORSDOF 0
ENDMDL
