MODEL 1
REMARK minimizedAffinity 11.1913862
REMARK minimizedRMSD -1
REMARK  0 active torsions:
REMARK  status: ('A' for Active; 'I' for Inactive)
ROOT
ATOM      1  C   UNL d   1      -1.764  -2.889   0.726  0.00  0.00     0.078 C 
ATOM      2  C1  UNL d   1      -3.235  -2.631   0.600  0.00  0.00    -0.077 A 
ATOM      3  C2  UNL d   1      -3.740  -1.325   0.589  0.00  0.00    -0.001 A 
ATOM      4  C3  UNL d   1      -5.113  -1.099   0.481  0.00  0.00     0.003 A 
ATOM      5  C4  UNL d   1      -5.993  -2.175   0.385  0.00  0.00    -0.005 A 
ATOM      6  C5  UNL d   1      -5.501  -3.478   0.397  0.00  0.00     0.003 A 
ATOM      7  C6  UNL d   1      -4.128  -3.706   0.505  0.00  0.00    -0.001 A 
ENDROOT
TORSDOF 0
ENDMDL
