MODEL 1
REMARK minimizedAffinity 9.01938438
REMARK minimizedRMSD -1
REMARK  0 active torsions:
REMARK  status: ('A' for Active; 'I' for Inactive)
ROOT
ATOM      1  C   UNL d   1      -0.309   1.118   2.984  0.00  0.00     0.078 C 
ATOM      2  C1  UNL d   1      -1.740   1.392   2.630  0.00  0.00    -0.077 A 
ATOM      3  C2  UNL d   1      -2.417   2.495   3.164  0.00  0.00    -0.001 A 
ATOM      4  C3  UNL d   1      -3.752   2.732   2.833  0.00  0.00     0.003 A 
ATOM      5  C4  UNL d   1      -4.423   1.869   1.969  0.00  0.00    -0.005 A 
ATOM      6  C5  UNL d   1      -3.758   0.767   1.434  0.00  0.00     0.003 A 
ATOM      7  C6  UNL d   1      -2.423   0.529   1.763  0.00  0.00    -0.001 A 
ENDROOT
TORSDOF 0
ENDMDL
