MODEL 1
REMARK minimizedAffinity 4.52708626
REMARK minimizedRMSD -1
REMARK  0 active torsions:
REMARK  status: ('A' for Active; 'I' for Inactive)
ROOT
ATOM      1  C   UNL d   1      -5.623   1.888   5.999  0.00  0.00     0.078 C 
ATOM      2  C1  UNL d   1      -5.630   3.220   5.311  0.00  0.00    -0.077 A 
ATOM      3  C2  UNL d   1      -5.987   4.386   6.000  0.00  0.00    -0.001 A 
ATOM      4  C3  UNL d   1      -5.999   5.618   5.344  0.00  0.00     0.003 A 
ATOM      5  C4  UNL d   1      -5.656   5.696   3.996  0.00  0.00    -0.005 A 
ATOM      6  C5  UNL d   1      -5.301   4.542   3.301  0.00  0.00     0.003 A 
ATOM      7  C6  UNL d   1      -5.289   3.309   3.955  0.00  0.00    -0.001 A 
ENDROOT
TORSDOF 0
ENDMDL
