MODEL 1
REMARK minimizedAffinity 6.73511219
REMARK minimizedRMSD -1
REMARK  0 active torsions:
REMARK  status: ('A' for Active; 'I' for Inactive)
ROOT
ATOM      1  C   UNL d   1      -1.275  -3.853   0.723  0.00  0.00     0.078 C 
ATOM      2  C1  UNL d   1      -2.693  -3.472   0.418  0.00  0.00    -0.077 A 
ATOM      3  C2  UNL d   1      -3.551  -4.356  -0.248  0.00  0.00    -0.001 A 
ATOM      4  C3  UNL d   1      -4.865  -3.983  -0.534  0.00  0.00     0.003 A 
ATOM      5  C4  UNL d   1      -5.334  -2.726  -0.158  0.00  0.00    -0.005 A 
ATOM      6  C5  UNL d   1      -4.487  -1.839   0.503  0.00  0.00     0.003 A 
ATOM      7  C6  UNL d   1      -3.172  -2.209   0.790  0.00  0.00    -0.001 A 
ENDROOT
TORSDOF 0
ENDMDL
