MODEL 1
REMARK minimizedAffinity 5.22950935
REMARK minimizedRMSD -1
REMARK  0 active torsions:
REMARK  status: ('A' for Active; 'I' for Inactive)
ROOT
ATOM      1  C   UNL d   1      -3.353   2.024   0.785  0.00  0.00     0.078 C 
ATOM      2  C1  UNL d   1      -3.015   0.566   0.878  0.00  0.00    -0.077 A 
ATOM      3  C2  UNL d   1      -1.854   0.135   1.533  0.00  0.00    -0.001 A 
ATOM      4  C3  UNL d   1      -1.547  -1.225   1.602  0.00  0.00     0.003 A 
ATOM      5  C4  UNL d   1      -2.393  -2.165   1.018  0.00  0.00    -0.005 A 
ATOM      6  C5  UNL d   1      -3.549  -1.745   0.362  0.00  0.00     0.003 A 
ATOM      7  C6  UNL d   1      -3.858  -0.386   0.291  0.00  0.00    -0.001 A 
ENDROOT
TORSDOF 0
ENDMDL
