MODEL 1
REMARK minimizedAffinity 9.03886223
REMARK minimizedRMSD -1
REMARK  0 active torsions:
REMARK  status: ('A' for Active; 'I' for Inactive)
ROOT
ATOM      1  C   UNL d   1       4.499   3.038  -5.559  0.00  0.00     0.078 C 
ATOM      2  C1  UNL d   1       3.758   1.995  -4.776  0.00  0.00    -0.077 A 
ATOM      3  C2  UNL d   1       3.500   2.166  -3.411  0.00  0.00    -0.001 A 
ATOM      4  C3  UNL d   1       2.818   1.183  -2.693  0.00  0.00     0.003 A 
ATOM      5  C4  UNL d   1       2.389   0.021  -3.332  0.00  0.00    -0.005 A 
ATOM      6  C5  UNL d   1       2.644  -0.159  -4.690  0.00  0.00     0.003 A 
ATOM      7  C6  UNL d   1       3.326   0.823  -5.409  0.00  0.00    -0.001 A 
ENDROOT
TORSDOF 0
ENDMDL
