MODEL 1
REMARK minimizedAffinity 10.0643749
REMARK minimizedRMSD -1
REMARK  0 active torsions:
REMARK  status: ('A' for Active; 'I' for Inactive)
ROOT
ATOM      1  C   UNL d   1      -5.065   5.976   4.639  0.00  0.00     0.078 C 
ATOM      2  C1  UNL d   1      -5.061   5.454   3.234  0.00  0.00    -0.077 A 
ATOM      3  C2  UNL d   1      -4.120   4.503   2.820  0.00  0.00    -0.001 A 
ATOM      4  C3  UNL d   1      -4.122   4.033   1.506  0.00  0.00     0.003 A 
ATOM      5  C4  UNL d   1      -5.061   4.510   0.594  0.00  0.00    -0.005 A 
ATOM      6  C5  UNL d   1      -6.000   5.458   0.995  0.00  0.00     0.003 A 
ATOM      7  C6  UNL d   1      -6.000   5.929   2.309  0.00  0.00    -0.001 A 
ENDROOT
TORSDOF 0
ENDMDL
