MODEL 1
REMARK minimizedAffinity 6.14331961
REMARK minimizedRMSD -1
REMARK  0 active torsions:
REMARK  status: ('A' for Active; 'I' for Inactive)
ROOT
ATOM      1  C   UNL d   1      -5.901   2.229   5.982  0.00  0.00     0.078 C 
ATOM      2  C1  UNL d   1      -5.923   3.510   5.202  0.00  0.00    -0.077 A 
ATOM      3  C2  UNL d   1      -5.890   3.503   3.803  0.00  0.00    -0.001 A 
ATOM      4  C3  UNL d   1      -5.902   4.703   3.090  0.00  0.00     0.003 A 
ATOM      5  C4  UNL d   1      -5.946   5.919   3.769  0.00  0.00    -0.005 A 
ATOM      6  C5  UNL d   1      -5.976   5.936   5.162  0.00  0.00     0.003 A 
ATOM      7  C6  UNL d   1      -5.965   4.737   5.876  0.00  0.00    -0.001 A 
ENDROOT
TORSDOF 0
ENDMDL
