MODEL 1
REMARK minimizedAffinity 4.72604275
REMARK minimizedRMSD -1
REMARK  0 active torsions:
REMARK  status: ('A' for Active; 'I' for Inactive)
ROOT
ATOM      1  C   UNL d   1       0.394   2.253   2.808  0.00  0.00     0.078 C 
ATOM      2  C1  UNL d   1      -0.907   2.323   2.066  0.00  0.00    -0.077 A 
ATOM      3  C2  UNL d   1      -1.215   1.399   1.060  0.00  0.00    -0.001 A 
ATOM      4  C3  UNL d   1      -2.426   1.482   0.371  0.00  0.00     0.003 A 
ATOM      5  C4  UNL d   1      -3.339   2.488   0.681  0.00  0.00    -0.005 A 
ATOM      6  C5  UNL d   1      -3.041   3.414   1.679  0.00  0.00     0.003 A 
ATOM      7  C6  UNL d   1      -1.830   3.332   2.368  0.00  0.00    -0.001 A 
ENDROOT
TORSDOF 0
ENDMDL
