MODEL 1
REMARK minimizedAffinity -3.44315934
REMARK minimizedRMSD -1
REMARK  2 active torsions:
REMARK  status: ('A' for Active; 'I' for Inactive)
REMARK    1  A    between atoms: C1_2  and  C2_3 
REMARK    2  A    between atoms: C2_3  and  C3_4 
ROOT
ATOM      1  C3  UNL d   1       0.354   0.474   0.103  0.00  0.00    -0.075 A 
ATOM      2  C4  UNL d   1       0.970  -0.724   0.494  0.00  0.00     0.002 A 
ATOM      3  C5  UNL d   1       2.273  -0.719   0.993  0.00  0.00     0.002 A 
ATOM      4  C6  UNL d   1       2.978   0.478   1.098  0.00  0.00    -0.004 A 
ATOM      5  C7  UNL d   1       2.381   1.671   0.697  0.00  0.00     0.002 A 
ATOM      6  C8  UNL d   1       1.076   1.670   0.201  0.00  0.00     0.002 A 
ENDROOT
BRANCH   1   7
ATOM      7  C2  UNL d   1      -1.067   0.480  -0.410  0.00  0.00     0.056 C 
BRANCH   7   8
ATOM      8  C1  UNL d   1      -2.121   0.719   0.675  0.00  0.00     0.007 C 
ATOM      9  C   UNL d   1      -3.543   0.759   0.132  0.00  0.00     0.009 C 
ENDBRANCH   7   8
ENDBRANCH   1   7
TORSDOF 2
ENDMDL
