MODEL 1
REMARK minimizedAffinity -2.92749929
REMARK minimizedRMSD -1
REMARK  2 active torsions:
REMARK  status: ('A' for Active; 'I' for Inactive)
REMARK    1  A    between atoms: C1_2  and  C2_3 
REMARK    2  A    between atoms: C2_3  and  C3_4 
ROOT
ATOM      1  C3  UNL d   1      -0.873   0.948   0.557  0.00  0.00    -0.075 A 
ATOM      2  C4  UNL d   1      -1.321   1.693   1.658  0.00  0.00     0.002 A 
ATOM      3  C5  UNL d   1      -2.685   1.899   1.866  0.00  0.00     0.002 A 
ATOM      4  C6  UNL d   1      -3.616   1.374   0.972  0.00  0.00    -0.004 A 
ATOM      5  C7  UNL d   1      -3.181   0.647  -0.134  0.00  0.00     0.002 A 
ATOM      6  C8  UNL d   1      -1.817   0.435  -0.342  0.00  0.00     0.002 A 
ENDROOT
BRANCH   1   7
ATOM      7  C2  UNL d   1       0.601   0.696   0.343  0.00  0.00     0.056 C 
BRANCH   7   8
ATOM      8  C1  UNL d   1       1.017  -0.767   0.528  0.00  0.00     0.007 C 
ATOM      9  C   UNL d   1       2.525  -0.972   0.486  0.00  0.00     0.009 C 
ENDBRANCH   7   8
ENDBRANCH   1   7
TORSDOF 2
ENDMDL
