MODEL 1
REMARK minimizedAffinity -1.48263311
REMARK minimizedRMSD -1
REMARK  2 active torsions:
REMARK  status: ('A' for Active; 'I' for Inactive)
REMARK    1  A    between atoms: C1_2  and  C2_3 
REMARK    2  A    between atoms: C2_3  and  C3_4 
ROOT
ATOM      1  C3  UNL d   1      -1.415   0.442  -0.265  0.00  0.00    -0.075 A 
ATOM      2  C4  UNL d   1      -1.191  -0.936  -0.400  0.00  0.00     0.002 A 
ATOM      3  C5  UNL d   1       0.109  -1.443  -0.421  0.00  0.00     0.002 A 
ATOM      4  C6  UNL d   1       1.198  -0.581  -0.317  0.00  0.00    -0.004 A 
ATOM      5  C7  UNL d   1       0.988   0.791  -0.200  0.00  0.00     0.002 A 
ATOM      6  C8  UNL d   1      -0.312   1.301  -0.174  0.00  0.00     0.002 A 
ENDROOT
BRANCH   1   7
ATOM      7  C2  UNL d   1      -2.819   0.994  -0.212  0.00  0.00     0.056 C 
BRANCH   7   8
ATOM      8  C1  UNL d   1      -3.704   0.349   0.860  0.00  0.00     0.007 C 
ATOM      9  C   UNL d   1      -3.647   1.072   2.199  0.00  0.00     0.009 C 
ENDBRANCH   7   8
ENDBRANCH   1   7
TORSDOF 2
ENDMDL
