MODEL 1
REMARK minimizedAffinity -1.09206498
REMARK minimizedRMSD -1
REMARK  2 active torsions:
REMARK  status: ('A' for Active; 'I' for Inactive)
REMARK    1  A    between atoms: C1_2  and  C2_3 
REMARK    2  A    between atoms: C2_3  and  C3_4 
ROOT
ATOM      1  C3  UNL d   1      -1.864   0.625   0.674  0.00  0.00    -0.075 A 
ATOM      2  C4  UNL d   1      -1.921   1.582   1.697  0.00  0.00     0.002 A 
ATOM      3  C5  UNL d   1      -3.068   1.715   2.480  0.00  0.00     0.002 A 
ATOM      4  C6  UNL d   1      -4.174   0.902   2.244  0.00  0.00    -0.004 A 
ATOM      5  C7  UNL d   1      -4.135  -0.041   1.219  0.00  0.00     0.002 A 
ATOM      6  C8  UNL d   1      -2.987  -0.179   0.437  0.00  0.00     0.002 A 
ENDROOT
BRANCH   1   7
ATOM      7  C2  UNL d   1      -0.615   0.456  -0.158  0.00  0.00     0.056 C 
BRANCH   7   8
ATOM      8  C1  UNL d   1      -0.453  -0.942  -0.763  0.00  0.00     0.007 C 
ATOM      9  C   UNL d   1       0.652  -1.757  -0.104  0.00  0.00     0.009 C 
ENDBRANCH   7   8
ENDBRANCH   1   7
TORSDOF 2
ENDMDL
