MODEL 1
REMARK minimizedAffinity -3.63552976
REMARK minimizedRMSD -1
REMARK  2 active torsions:
REMARK  status: ('A' for Active; 'I' for Inactive)
REMARK    1  A    between atoms: C1_2  and  C2_3 
REMARK    2  A    between atoms: C2_3  and  C3_4 
ROOT
ATOM      1  C3  UNL d   1       0.305   0.255  -0.414  0.00  0.00    -0.075 A 
ATOM      2  C4  UNL d   1       0.039  -1.099  -0.666  0.00  0.00     0.002 A 
ATOM      3  C5  UNL d   1       1.063  -2.045  -0.606  0.00  0.00     0.002 A 
ATOM      4  C6  UNL d   1       2.364  -1.649  -0.303  0.00  0.00    -0.004 A 
ATOM      5  C7  UNL d   1       2.642  -0.305  -0.067  0.00  0.00     0.002 A 
ATOM      6  C8  UNL d   1       1.619   0.643  -0.122  0.00  0.00     0.002 A 
ENDROOT
BRANCH   1   7
ATOM      7  C2  UNL d   1      -0.804   1.279  -0.449  0.00  0.00     0.056 C 
BRANCH   7   8
ATOM      8  C1  UNL d   1      -2.212   0.675  -0.448  0.00  0.00     0.007 C 
ATOM      9  C   UNL d   1      -3.169   1.383   0.502  0.00  0.00     0.009 C 
ENDBRANCH   7   8
ENDBRANCH   1   7
TORSDOF 2
ENDMDL
