MODEL 1
REMARK minimizedAffinity -4.1372447
REMARK minimizedRMSD -1
REMARK  2 active torsions:
REMARK  status: ('A' for Active; 'I' for Inactive)
REMARK    1  A    between atoms: C1_2  and  C2_3 
REMARK    2  A    between atoms: C2_3  and  C3_4 
ROOT
ATOM      1  C3  UNL d   1      -1.427  -0.168   0.015  0.00  0.00    -0.075 A 
ATOM      2  C4  UNL d   1      -2.305  -0.813   0.899  0.00  0.00     0.002 A 
ATOM      3  C5  UNL d   1      -3.477  -0.183   1.318  0.00  0.00     0.002 A 
ATOM      4  C6  UNL d   1      -3.780   1.100   0.869  0.00  0.00    -0.004 A 
ATOM      5  C7  UNL d   1      -2.907   1.757   0.004  0.00  0.00     0.002 A 
ATOM      6  C8  UNL d   1      -1.736   1.127  -0.421  0.00  0.00     0.002 A 
ENDROOT
BRANCH   1   7
ATOM      7  C2  UNL d   1      -0.172  -0.856  -0.466  0.00  0.00     0.056 C 
BRANCH   7   8
ATOM      8  C1  UNL d   1       0.276  -2.026   0.417  0.00  0.00     0.007 C 
ATOM      9  C   UNL d   1       1.762  -2.338   0.292  0.00  0.00     0.009 C 
ENDBRANCH   7   8
ENDBRANCH   1   7
TORSDOF 2
ENDMDL
