MODEL 1
REMARK minimizedAffinity 5.75205612
REMARK minimizedRMSD -1
REMARK  2 active torsions:
REMARK  status: ('A' for Active; 'I' for Inactive)
REMARK    1  A    between atoms: C1_2  and  C2_3 
REMARK    2  A    between atoms: C2_3  and  C3_4 
ROOT
ATOM      1  C3  UNL d   1       0.965  -1.042  -0.346  0.00  0.00    -0.075 A 
ATOM      2  C4  UNL d   1      -0.305  -1.200   0.227  0.00  0.00     0.002 A 
ATOM      3  C5  UNL d   1      -0.663  -2.403   0.836  0.00  0.00     0.002 A 
ATOM      4  C6  UNL d   1       0.239  -3.465   0.871  0.00  0.00    -0.004 A 
ATOM      5  C7  UNL d   1       1.498  -3.324   0.290  0.00  0.00     0.002 A 
ATOM      6  C8  UNL d   1       1.860  -2.120  -0.316  0.00  0.00     0.002 A 
ENDROOT
BRANCH   1   7
ATOM      7  C2  UNL d   1       1.369   0.268  -0.980  0.00  0.00     0.056 C 
BRANCH   7   8
ATOM      8  C1  UNL d   1       2.622   0.899  -0.364  0.00  0.00     0.007 C 
ATOM      9  C   UNL d   1       2.362   2.263   0.262  0.00  0.00     0.009 C 
ENDBRANCH   7   8
ENDBRANCH   1   7
TORSDOF 2
ENDMDL
