MODEL 1
REMARK minimizedAffinity -5.16774273
REMARK minimizedRMSD -1
REMARK  2 active torsions:
REMARK  status: ('A' for Active; 'I' for Inactive)
REMARK    1  A    between atoms: C1_2  and  C2_3 
REMARK    2  A    between atoms: C2_3  and  C3_4 
ROOT
ATOM      1  C3  UNL d   1       0.203   0.262  -0.432  0.00  0.00    -0.075 A 
ATOM      2  C4  UNL d   1       0.340  -1.059  -0.881  0.00  0.00     0.002 A 
ATOM      3  C5  UNL d   1       1.388  -1.858  -0.423  0.00  0.00     0.002 A 
ATOM      4  C6  UNL d   1       2.317  -1.344   0.479  0.00  0.00    -0.004 A 
ATOM      5  C7  UNL d   1       2.201  -0.027   0.919  0.00  0.00     0.002 A 
ATOM      6  C8  UNL d   1       1.150   0.773   0.466  0.00  0.00     0.002 A 
ENDROOT
BRANCH   1   7
ATOM      7  C2  UNL d   1      -0.947   1.122  -0.900  0.00  0.00     0.056 C 
BRANCH   7   8
ATOM      8  C1  UNL d   1      -1.969   1.447   0.194  0.00  0.00     0.007 C 
ATOM      9  C   UNL d   1      -3.340   0.837  -0.066  0.00  0.00     0.009 C 
ENDBRANCH   7   8
ENDBRANCH   1   7
TORSDOF 2
ENDMDL
