MODEL 1
REMARK minimizedAffinity -4.0072484
REMARK minimizedRMSD -1
REMARK  2 active torsions:
REMARK  status: ('A' for Active; 'I' for Inactive)
REMARK    1  A    between atoms: C1_2  and  C2_3 
REMARK    2  A    between atoms: C2_3  and  C3_4 
ROOT
ATOM      1  C3  UNL d   1      -0.435   0.443   0.062  0.00  0.00    -0.075 A 
ATOM      2  C4  UNL d   1      -0.906  -0.494  -0.869  0.00  0.00     0.002 A 
ATOM      3  C5  UNL d   1      -0.151  -1.625  -1.180  0.00  0.00     0.002 A 
ATOM      4  C6  UNL d   1       1.086  -1.829  -0.572  0.00  0.00    -0.004 A 
ATOM      5  C7  UNL d   1       1.571  -0.897   0.342  0.00  0.00     0.002 A 
ATOM      6  C8  UNL d   1       0.816   0.234   0.658  0.00  0.00     0.002 A 
ENDROOT
BRANCH   1   7
ATOM      7  C2  UNL d   1      -1.261   1.654   0.425  0.00  0.00     0.056 C 
BRANCH   7   8
ATOM      8  C1  UNL d   1      -2.199   1.435   1.617  0.00  0.00     0.007 C 
ATOM      9  C   UNL d   1      -3.587   0.960   1.210  0.00  0.00     0.009 C 
ENDBRANCH   7   8
ENDBRANCH   1   7
TORSDOF 2
ENDMDL
