MODEL 1
REMARK minimizedAffinity 6.54688311
REMARK minimizedRMSD -1
REMARK  2 active torsions:
REMARK  status: ('A' for Active; 'I' for Inactive)
REMARK    1  A    between atoms: C1_2  and  C2_3 
REMARK    2  A    between atoms: C2_3  and  C3_4 
ROOT
ATOM      1  C3  UNL d   1       3.334  -2.610   2.140  0.00  0.00    -0.075 A 
ATOM      2  C4  UNL d   1       2.446  -1.613   2.572  0.00  0.00     0.002 A 
ATOM      3  C5  UNL d   1       1.432  -1.155   1.730  0.00  0.00     0.002 A 
ATOM      4  C6  UNL d   1       1.299  -1.679   0.446  0.00  0.00    -0.004 A 
ATOM      5  C7  UNL d   1       2.185  -2.657   0.001  0.00  0.00     0.002 A 
ATOM      6  C8  UNL d   1       3.198  -3.120   0.843  0.00  0.00     0.002 A 
ENDROOT
BRANCH   1   7
ATOM      7  C2  UNL d   1       4.416  -3.130   3.057  0.00  0.00     0.056 C 
BRANCH   7   8
ATOM      8  C1  UNL d   1       4.544  -2.356   4.373  0.00  0.00     0.007 C 
ATOM      9  C   UNL d   1       5.963  -1.881   4.654  0.00  0.00     0.009 C 
ENDBRANCH   7   8
ENDBRANCH   1   7
TORSDOF 2
ENDMDL
