MODEL 1
REMARK minimizedAffinity 12.3800488
REMARK minimizedRMSD -1
REMARK  2 active torsions:
REMARK  status: ('A' for Active; 'I' for Inactive)
REMARK    1  A    between atoms: C1_2  and  C2_3 
REMARK    2  A    between atoms: C2_3  and  C3_4 
ROOT
ATOM      1  C3  UNL d   1       4.657  -3.969   3.355  0.00  0.00    -0.075 A 
ATOM      2  C4  UNL d   1       5.228  -2.909   4.075  0.00  0.00     0.002 A 
ATOM      3  C5  UNL d   1       5.660  -3.097   5.388  0.00  0.00     0.002 A 
ATOM      4  C6  UNL d   1       5.518  -4.340   6.000  0.00  0.00    -0.004 A 
ATOM      5  C7  UNL d   1       4.938  -5.395   5.300  0.00  0.00     0.002 A 
ATOM      6  C8  UNL d   1       4.508  -5.212   3.984  0.00  0.00     0.002 A 
ENDROOT
BRANCH   1   7
ATOM      7  C2  UNL d   1       4.214  -3.780   1.923  0.00  0.00     0.056 C 
BRANCH   7   8
ATOM      8  C1  UNL d   1       2.727  -3.442   1.770  0.00  0.00     0.007 C 
ATOM      9  C   UNL d   1       2.409  -2.708   0.475  0.00  0.00     0.009 C 
ENDBRANCH   7   8
ENDBRANCH   1   7
TORSDOF 2
ENDMDL
