MODEL 1
REMARK minimizedAffinity 1.14744782
REMARK minimizedRMSD -1
REMARK  2 active torsions:
REMARK  status: ('A' for Active; 'I' for Inactive)
REMARK    1  A    between atoms: C1_2  and  C2_3 
REMARK    2  A    between atoms: C2_3  and  C3_4 
ROOT
ATOM      1  C3  UNL d   1       3.926  -3.804   2.410  0.00  0.00    -0.075 A 
ATOM      2  C4  UNL d   1       4.612  -4.113   1.227  0.00  0.00     0.002 A 
ATOM      3  C5  UNL d   1       4.117  -3.696  -0.009  0.00  0.00     0.002 A 
ATOM      4  C6  UNL d   1       2.927  -2.974  -0.078  0.00  0.00    -0.004 A 
ATOM      5  C7  UNL d   1       2.229  -2.676   1.090  0.00  0.00     0.002 A 
ATOM      6  C8  UNL d   1       2.724  -3.089   2.328  0.00  0.00     0.002 A 
ENDROOT
BRANCH   1   7
ATOM      7  C2  UNL d   1       4.473  -4.228   3.753  0.00  0.00     0.056 C 
BRANCH   7   8
ATOM      8  C1  UNL d   1       4.651  -3.075   4.746  0.00  0.00     0.007 C 
ATOM      9  C   UNL d   1       5.977  -2.342   4.583  0.00  0.00     0.009 C 
ENDBRANCH   7   8
ENDBRANCH   1   7
TORSDOF 2
ENDMDL
