MODEL 1
REMARK minimizedAffinity 3.5613308
REMARK minimizedRMSD -1
REMARK  2 active torsions:
REMARK  status: ('A' for Active; 'I' for Inactive)
REMARK    1  A    between atoms: C1_2  and  C2_3 
REMARK    2  A    between atoms: C2_3  and  C3_4 
ROOT
ATOM      1  C3  UNL d   1       4.410  -3.381   3.185  0.00  0.00    -0.075 A 
ATOM      2  C4  UNL d   1       4.481  -4.732   3.556  0.00  0.00     0.002 A 
ATOM      3  C5  UNL d   1       4.932  -5.095   4.825  0.00  0.00     0.002 A 
ATOM      4  C6  UNL d   1       5.327  -4.116   5.734  0.00  0.00    -0.004 A 
ATOM      5  C7  UNL d   1       5.277  -2.772   5.370  0.00  0.00     0.002 A 
ATOM      6  C8  UNL d   1       4.821  -2.406   4.103  0.00  0.00     0.002 A 
ENDROOT
BRANCH   1   7
ATOM      7  C2  UNL d   1       3.894  -2.980   1.824  0.00  0.00     0.056 C 
BRANCH   7   8
ATOM      8  C1  UNL d   1       2.450  -2.469   1.830  0.00  0.00     0.007 C 
ATOM      9  C   UNL d   1       1.864  -2.308   0.433  0.00  0.00     0.009 C 
ENDBRANCH   7   8
ENDBRANCH   1   7
TORSDOF 2
ENDMDL
