MODEL 1
REMARK minimizedAffinity -1.00075209
REMARK minimizedRMSD -1
REMARK  2 active torsions:
REMARK  status: ('A' for Active; 'I' for Inactive)
REMARK    1  A    between atoms: C2'_3  and  C1'_4 
REMARK    2  A    between atoms: C1'_4  and  C1_5 
ROOT
ATOM      1  C1  I4B d   1       0.146   0.546   0.232  0.00  0.00    -0.075 A 
ATOM      2  C2  I4B d   1      -0.877  -0.011   0.957  0.00  0.00     0.003 A 
ATOM      3  C3  I4B d   1      -1.074  -1.413   0.952  0.00  0.00     0.002 A 
ATOM      4  C4  I4B d   1      -0.260  -2.210   0.172  0.00  0.00    -0.004 A 
ATOM      5  C5  I4B d   1       0.791  -1.646  -0.544  0.00  0.00     0.002 A 
ATOM      6  C6  I4B d   1       1.004  -0.260  -0.505  0.00  0.00     0.003 A 
ENDROOT
BRANCH   1   7
ATOM      7  C1' I4B d   1       0.304   2.034   0.235  0.00  0.00     0.060 C 
BRANCH   7   8
ATOM      8  C2' I4B d   1       1.623   2.362   0.905  0.00  0.00    -0.013 C 
ATOM      9  C4' I4B d   1       2.706   2.606  -0.113  0.00  0.00     0.013 C 
ATOM     10  C3' I4B d   1       1.414   3.567   1.773  0.00  0.00     0.013 C 
ENDBRANCH   7   8
ENDBRANCH   1   7
TORSDOF 2
ENDMDL
