MODEL 1
REMARK minimizedAffinity -4.97489691
REMARK minimizedRMSD -1
REMARK  2 active torsions:
REMARK  status: ('A' for Active; 'I' for Inactive)
REMARK    1  A    between atoms: C2'_3  and  C1'_4 
REMARK    2  A    between atoms: C1'_4  and  C1_5 
ROOT
ATOM      1  C1  I4B d   1       0.310   0.766   0.130  0.00  0.00    -0.075 A 
ATOM      2  C2  I4B d   1       0.308   0.277  -1.152  0.00  0.00     0.003 A 
ATOM      3  C3  I4B d   1       0.138  -1.109  -1.386  0.00  0.00     0.002 A 
ATOM      4  C4  I4B d   1       0.026  -1.970  -0.314  0.00  0.00    -0.004 A 
ATOM      5  C5  I4B d   1       0.005  -1.470   0.984  0.00  0.00     0.002 A 
ATOM      6  C6  I4B d   1       0.136  -0.092   1.208  0.00  0.00     0.003 A 
ENDROOT
BRANCH   1   7
ATOM      7  C1' I4B d   1       0.525   2.231   0.343  0.00  0.00     0.060 C 
BRANCH   7   8
ATOM      8  C2' I4B d   1       1.945   2.429   0.831  0.00  0.00    -0.013 C 
ATOM      9  C4' I4B d   1       2.805   3.059  -0.233  0.00  0.00     0.013 C 
ATOM     10  C3' I4B d   1       1.896   3.282   2.063  0.00  0.00     0.013 C 
ENDBRANCH   7   8
ENDBRANCH   1   7
TORSDOF 2
ENDMDL
