MODEL 1
REMARK minimizedAffinity -4.20539618
REMARK minimizedRMSD -1
REMARK  2 active torsions:
REMARK  status: ('A' for Active; 'I' for Inactive)
REMARK    1  A    between atoms: C2'_3  and  C1'_4 
REMARK    2  A    between atoms: C1'_4  and  C1_5 
ROOT
ATOM      1  C1  I4B d   1       0.140  -0.079   0.083  0.00  0.00    -0.075 A 
ATOM      2  C2  I4B d   1      -0.878  -0.390   0.951  0.00  0.00     0.003 A 
ATOM      3  C3  I4B d   1      -1.049  -1.721   1.402  0.00  0.00     0.002 A 
ATOM      4  C4  I4B d   1      -0.216  -2.712   0.925  0.00  0.00    -0.004 A 
ATOM      5  C5  I4B d   1       0.830  -2.392   0.064  0.00  0.00     0.002 A 
ATOM      6  C6  I4B d   1       1.017  -1.065  -0.350  0.00  0.00     0.003 A 
ENDROOT
BRANCH   1   7
ATOM      7  C1' I4B d   1       0.271   1.330  -0.399  0.00  0.00     0.060 C 
BRANCH   7   8
ATOM      8  C2' I4B d   1       1.203   2.062   0.545  0.00  0.00    -0.013 C 
ATOM      9  C4' I4B d   1       2.579   2.207  -0.050  0.00  0.00     0.013 C 
ATOM     10  C3' I4B d   1       0.600   3.402   0.845  0.00  0.00     0.013 C 
ENDBRANCH   7   8
ENDBRANCH   1   7
TORSDOF 2
ENDMDL
