MODEL 1
REMARK minimizedAffinity -4.14286852
REMARK minimizedRMSD -1
REMARK  2 active torsions:
REMARK  status: ('A' for Active; 'I' for Inactive)
REMARK    1  A    between atoms: C2'_3  and  C1'_4 
REMARK    2  A    between atoms: C1'_4  and  C1_5 
ROOT
ATOM      1  C1  I4B d   1       0.151  -0.013  -0.271  0.00  0.00    -0.075 A 
ATOM      2  C2  I4B d   1       0.761  -0.955  -1.061  0.00  0.00     0.003 A 
ATOM      3  C3  I4B d   1       0.616  -2.333  -0.768  0.00  0.00     0.002 A 
ATOM      4  C4  I4B d   1      -0.101  -2.719   0.346  0.00  0.00    -0.004 A 
ATOM      5  C5  I4B d   1      -0.737  -1.764   1.132  0.00  0.00     0.002 A 
ATOM      6  C6  I4B d   1      -0.621  -0.402   0.815  0.00  0.00     0.003 A 
ENDROOT
BRANCH   1   7
ATOM      7  C1' I4B d   1       0.352   1.434  -0.591  0.00  0.00     0.060 C 
BRANCH   7   8
ATOM      8  C2' I4B d   1       1.127   2.061   0.551  0.00  0.00    -0.013 C 
ATOM      9  C4' I4B d   1       2.442   2.619   0.076  0.00  0.00     0.013 C 
ATOM     10  C3' I4B d   1       0.271   3.133   1.158  0.00  0.00     0.013 C 
ENDBRANCH   7   8
ENDBRANCH   1   7
TORSDOF 2
ENDMDL
