MODEL 1
REMARK minimizedAffinity -6.67343664
REMARK minimizedRMSD -1
REMARK  2 active torsions:
REMARK  status: ('A' for Active; 'I' for Inactive)
REMARK    1  A    between atoms: C2'_3  and  C1'_4 
REMARK    2  A    between atoms: C1'_4  and  C1_5 
ROOT
ATOM      1  C1  I4B d   1       0.103  -0.011  -0.075  0.00  0.00    -0.075 A 
ATOM      2  C2  I4B d   1       0.992  -0.964  -0.506  0.00  0.00     0.003 A 
ATOM      3  C3  I4B d   1       0.844  -2.312  -0.098  0.00  0.00     0.002 A 
ATOM      4  C4  I4B d   1      -0.170  -2.651   0.774  0.00  0.00    -0.004 A 
ATOM      5  C5  I4B d   1      -1.083  -1.688   1.192  0.00  0.00     0.002 A 
ATOM      6  C6  I4B d   1      -0.954  -0.361   0.755  0.00  0.00     0.003 A 
ENDROOT
BRANCH   1   7
ATOM      7  C1' I4B d   1       0.308   1.410  -0.498  0.00  0.00     0.060 C 
BRANCH   7   8
ATOM      8  C2' I4B d   1       0.994   2.141   0.638  0.00  0.00    -0.013 C 
ATOM      9  C4' I4B d   1       2.435   2.429   0.310  0.00  0.00     0.013 C 
ATOM     10  C3' I4B d   1       0.234   3.407   0.899  0.00  0.00     0.013 C 
ENDBRANCH   7   8
ENDBRANCH   1   7
TORSDOF 2
ENDMDL
