MODEL 1
REMARK minimizedAffinity -5.4777298
REMARK minimizedRMSD -1
REMARK  2 active torsions:
REMARK  status: ('A' for Active; 'I' for Inactive)
REMARK    1  A    between atoms: C2'_3  and  C1'_4 
REMARK    2  A    between atoms: C1'_4  and  C1_5 
ROOT
ATOM      1  C1  I4B d   1      -0.553  -0.039   0.409  0.00  0.00    -0.075 A 
ATOM      2  C2  I4B d   1      -1.387  -0.708   1.270  0.00  0.00     0.003 A 
ATOM      3  C3  I4B d   1      -1.459  -2.122   1.239  0.00  0.00     0.002 A 
ATOM      4  C4  I4B d   1      -0.722  -2.819   0.304  0.00  0.00    -0.004 A 
ATOM      5  C5  I4B d   1       0.141  -2.141  -0.552  0.00  0.00     0.002 A 
ATOM      6  C6  I4B d   1       0.236  -0.744  -0.491  0.00  0.00     0.003 A 
ENDROOT
BRANCH   1   7
ATOM      7  C1' I4B d   1      -0.527   1.456   0.446  0.00  0.00     0.060 C 
BRANCH   7   8
ATOM      8  C2' I4B d   1       0.253   1.939  -0.760  0.00  0.00    -0.013 C 
ATOM      9  C4' I4B d   1      -0.624   2.013  -1.982  0.00  0.00     0.013 C 
ATOM     10  C3' I4B d   1       0.834   3.281  -0.428  0.00  0.00     0.013 C 
ENDBRANCH   7   8
ENDBRANCH   1   7
TORSDOF 2
ENDMDL
