MODEL 1
REMARK minimizedAffinity -1.83726978
REMARK minimizedRMSD -1
REMARK  2 active torsions:
REMARK  status: ('A' for Active; 'I' for Inactive)
REMARK    1  A    between atoms: C2'_3  and  C1'_4 
REMARK    2  A    between atoms: C1'_4  and  C1_5 
ROOT
ATOM      1  C1  I4B d   1       0.189   1.437  -0.428  0.00  0.00    -0.075 A 
ATOM      2  C2  I4B d   1       0.384   0.971  -1.704  0.00  0.00     0.003 A 
ATOM      3  C3  I4B d   1       0.404  -0.422  -1.959  0.00  0.00     0.002 A 
ATOM      4  C4  I4B d   1       0.276  -1.307  -0.908  0.00  0.00    -0.004 A 
ATOM      5  C5  I4B d   1       0.056  -0.832   0.382  0.00  0.00     0.002 A 
ATOM      6  C6  I4B d   1      -0.000   0.548   0.622  0.00  0.00     0.003 A 
ENDROOT
BRANCH   1   7
ATOM      7  C1' I4B d   1       0.207   2.914  -0.190  0.00  0.00     0.060 C 
BRANCH   7   8
ATOM      8  C2' I4B d   1       1.054   3.178   1.039  0.00  0.00    -0.013 C 
ATOM      9  C4' I4B d   1       2.450   3.596   0.659  0.00  0.00     0.013 C 
ATOM     10  C3' I4B d   1       0.373   4.240   1.850  0.00  0.00     0.013 C 
ENDBRANCH   7   8
ENDBRANCH   1   7
TORSDOF 2
ENDMDL
