MODEL 1
REMARK minimizedAffinity -4.81681347
REMARK minimizedRMSD -1
REMARK  2 active torsions:
REMARK  status: ('A' for Active; 'I' for Inactive)
REMARK    1  A    between atoms: C2'_3  and  C1'_4 
REMARK    2  A    between atoms: C1'_4  and  C1_5 
ROOT
ATOM      1  C1  I4B d   1      -0.229  -0.719  -0.240  0.00  0.00    -0.075 A 
ATOM      2  C2  I4B d   1       0.654  -1.632  -0.760  0.00  0.00     0.003 A 
ATOM      3  C3  I4B d   1       0.722  -2.942  -0.228  0.00  0.00     0.002 A 
ATOM      4  C4  I4B d   1      -0.071  -3.279   0.851  0.00  0.00    -0.004 A 
ATOM      5  C5  I4B d   1      -0.982  -2.360   1.362  0.00  0.00     0.002 A 
ATOM      6  C6  I4B d   1      -1.071  -1.076   0.805  0.00  0.00     0.003 A 
ENDROOT
BRANCH   1   7
ATOM      7  C1' I4B d   1      -0.251   0.665  -0.805  0.00  0.00     0.060 C 
BRANCH   7   8
ATOM      8  C2' I4B d   1       0.330   1.603   0.233  0.00  0.00    -0.013 C 
ATOM      9  C4' I4B d   1       1.804   1.819   0.008  0.00  0.00     0.013 C 
ATOM     10  C3' I4B d   1      -0.424   2.897   0.163  0.00  0.00     0.013 C 
ENDBRANCH   7   8
ENDBRANCH   1   7
TORSDOF 2
ENDMDL
