MODEL 1
REMARK minimizedAffinity -5.66416836
REMARK minimizedRMSD -1
REMARK  2 active torsions:
REMARK  status: ('A' for Active; 'I' for Inactive)
REMARK    1  A    between atoms: C2'_3  and  C1'_4 
REMARK    2  A    between atoms: C1'_4  and  C1_5 
ROOT
ATOM      1  C1  I4B d   1      -0.170   0.515  -0.133  0.00  0.00    -0.075 A 
ATOM      2  C2  I4B d   1      -1.154   0.476   0.823  0.00  0.00     0.003 A 
ATOM      3  C3  I4B d   1      -1.544  -0.760   1.395  0.00  0.00     0.002 A 
ATOM      4  C4  I4B d   1      -0.962  -1.929   0.948  0.00  0.00    -0.004 A 
ATOM      5  C5  I4B d   1       0.052  -1.885  -0.005  0.00  0.00     0.002 A 
ATOM      6  C6  I4B d   1       0.459  -0.654  -0.540  0.00  0.00     0.003 A 
ENDROOT
BRANCH   1   7
ATOM      7  C1' I4B d   1       0.194   1.833  -0.739  0.00  0.00     0.060 C 
BRANCH   7   8
ATOM      8  C2' I4B d   1       0.953   2.632   0.301  0.00  0.00    -0.013 C 
ATOM      9  C4' I4B d   1       2.369   2.894  -0.139  0.00  0.00     0.013 C 
ATOM     10  C3' I4B d   1       0.211   3.915   0.531  0.00  0.00     0.013 C 
ENDBRANCH   7   8
ENDBRANCH   1   7
TORSDOF 2
ENDMDL
