MODEL 1
REMARK minimizedAffinity -5.54856682
REMARK minimizedRMSD -1
REMARK  2 active torsions:
REMARK  status: ('A' for Active; 'I' for Inactive)
REMARK    1  A    between atoms: C2'_3  and  C1'_4 
REMARK    2  A    between atoms: C1'_4  and  C1_5 
ROOT
ATOM      1  C1  I4B d   1       0.051   0.225  -0.563  0.00  0.00    -0.075 A 
ATOM      2  C2  I4B d   1       0.590  -0.643  -1.480  0.00  0.00     0.003 A 
ATOM      3  C3  I4B d   1       0.634  -2.032  -1.207  0.00  0.00     0.002 A 
ATOM      4  C4  I4B d   1       0.176  -2.500   0.008  0.00  0.00    -0.004 A 
ATOM      5  C5  I4B d   1      -0.391  -1.622   0.927  0.00  0.00     0.002 A 
ATOM      6  C6  I4B d   1      -0.465  -0.252   0.635  0.00  0.00     0.003 A 
ENDROOT
BRANCH   1   7
ATOM      7  C1' I4B d   1       0.051   1.689  -0.870  0.00  0.00     0.060 C 
BRANCH   7   8
ATOM      8  C2' I4B d   1       0.842   2.393   0.214  0.00  0.00    -0.013 C 
ATOM      9  C4' I4B d   1       2.169   2.879  -0.307  0.00  0.00     0.013 C 
ATOM     10  C3' I4B d   1       0.012   3.532   0.727  0.00  0.00     0.013 C 
ENDBRANCH   7   8
ENDBRANCH   1   7
TORSDOF 2
ENDMDL
