MODEL 1
REMARK minimizedAffinity -4.36453772
REMARK minimizedRMSD -1
REMARK  2 active torsions:
REMARK  status: ('A' for Active; 'I' for Inactive)
REMARK    1  A    between atoms: C2'_3  and  C1'_4 
REMARK    2  A    between atoms: C1'_4  and  C1_5 
ROOT
ATOM      1  C1  I4B d   1       0.259   0.327  -0.209  0.00  0.00    -0.075 A 
ATOM      2  C2  I4B d   1       0.705  -0.471  -1.233  0.00  0.00     0.003 A 
ATOM      3  C3  I4B d   1       0.549  -1.877  -1.160  0.00  0.00     0.002 A 
ATOM      4  C4  I4B d   1      -0.008  -2.441  -0.031  0.00  0.00    -0.004 A 
ATOM      5  C5  I4B d   1      -0.480  -1.629   0.996  0.00  0.00     0.002 A 
ATOM      6  C6  I4B d   1      -0.357  -0.235   0.901  0.00  0.00     0.003 A 
ENDROOT
BRANCH   1   7
ATOM      7  C1' I4B d   1       0.470   1.805  -0.304  0.00  0.00     0.060 C 
BRANCH   7   8
ATOM      8  C2' I4B d   1       1.815   2.125   0.315  0.00  0.00    -0.013 C 
ATOM      9  C4' I4B d   1       2.855   2.383  -0.743  0.00  0.00     0.013 C 
ATOM     10  C3' I4B d   1       1.642   3.319   1.206  0.00  0.00     0.013 C 
ENDBRANCH   7   8
ENDBRANCH   1   7
TORSDOF 2
ENDMDL
