MODEL 1
REMARK minimizedAffinity -5.5234499
REMARK minimizedRMSD -1
REMARK  2 active torsions:
REMARK  status: ('A' for Active; 'I' for Inactive)
REMARK    1  A    between atoms: C2'_3  and  C1'_4 
REMARK    2  A    between atoms: C1'_4  and  C1_5 
ROOT
ATOM      1  C1  I4B d   1       0.120   0.016  -0.211  0.00  0.00    -0.075 A 
ATOM      2  C2  I4B d   1      -0.905  -0.252   0.663  0.00  0.00     0.003 A 
ATOM      3  C3  I4B d   1      -1.077  -1.559   1.180  0.00  0.00     0.002 A 
ATOM      4  C4  I4B d   1      -0.239  -2.572   0.760  0.00  0.00    -0.004 A 
ATOM      5  C5  I4B d   1       0.813  -2.293  -0.108  0.00  0.00     0.002 A 
ATOM      6  C6  I4B d   1       1.002  -0.989  -0.587  0.00  0.00     0.003 A 
ENDROOT
BRANCH   1   7
ATOM      7  C1' I4B d   1       0.252   1.400  -0.763  0.00  0.00     0.060 C 
BRANCH   7   8
ATOM      8  C2' I4B d   1       1.117   2.201   0.189  0.00  0.00    -0.013 C 
ATOM      9  C4' I4B d   1       2.424   2.585  -0.454  0.00  0.00     0.013 C 
ATOM     10  C3' I4B d   1       0.343   3.415   0.607  0.00  0.00     0.013 C 
ENDBRANCH   7   8
ENDBRANCH   1   7
TORSDOF 2
ENDMDL
