MODEL 1
REMARK minimizedAffinity -1.20521438
REMARK minimizedRMSD -1
REMARK  0 active torsions:
REMARK  status: ('A' for Active; 'I' for Inactive)
ROOT
ATOM      1  C1  DEN d   1      -3.763   1.187  -6.000  0.00  0.00     0.130 A 
ATOM      2  C2  DEN d   1      -2.310   1.335  -5.999  0.00  0.00    -0.031 A 
ATOM      3  C3  DEN d   1      -1.747   0.309  -5.099  0.00  0.00     0.027 A 
ATOM      4  C4  DEN d   1      -2.976  -1.489  -3.718  0.00  0.00     0.027 A 
ATOM      5  C5  DEN d   1      -4.211  -1.999  -3.385  0.00  0.00    -0.003 A 
ATOM      6  C6  DEN d   1      -5.376  -1.466  -3.870  0.00  0.00     0.001 A 
ATOM      7  C7  DEN d   1      -5.328  -0.418  -4.751  0.00  0.00     0.017 A 
ATOM      8  C8  DEN d   1      -4.086   0.107  -5.085  0.00  0.00    -0.094 A 
ATOM      9  C9  DEN d   1      -2.919  -0.454  -4.594  0.00  0.00    -0.072 A 
ENDROOT
TORSDOF 0
ENDMDL
