MODEL 1
REMARK minimizedAffinity 12.8170996
REMARK minimizedRMSD -1
REMARK  0 active torsions:
REMARK  status: ('A' for Active; 'I' for Inactive)
ROOT
ATOM      1  C1  DEN d   1       3.500   2.016  -4.713  0.00  0.00     0.130 A 
ATOM      2  C2  DEN d   1       4.897   1.698  -4.995  0.00  0.00    -0.031 A 
ATOM      3  C3  DEN d   1       5.537   2.908  -5.552  0.00  0.00     0.027 A 
ATOM      4  C4  DEN d   1       4.507   5.230  -5.995  0.00  0.00     0.027 A 
ATOM      5  C5  DEN d   1       3.352   5.978  -5.926  0.00  0.00    -0.003 A 
ATOM      6  C6  DEN d   1       2.167   5.452  -5.483  0.00  0.00     0.001 A 
ATOM      7  C7  DEN d   1       2.121   4.154  -5.049  0.00  0.00     0.017 A 
ATOM      8  C8  DEN d   1       3.279   3.392  -5.123  0.00  0.00    -0.094 A 
ATOM      9  C9  DEN d   1       4.470   3.945  -5.562  0.00  0.00    -0.072 A 
ENDROOT
TORSDOF 0
ENDMDL
