MODEL 1
REMARK minimizedAffinity 12.3761082
REMARK minimizedRMSD -1
REMARK  0 active torsions:
REMARK  status: ('A' for Active; 'I' for Inactive)
ROOT
ATOM      1  C1  DEN d   1       2.660   4.687  -4.870  0.00  0.00     0.130 A 
ATOM      2  C2  DEN d   1       3.173   6.000  -5.251  0.00  0.00    -0.031 A 
ATOM      3  C3  DEN d   1       4.577   5.835  -5.678  0.00  0.00     0.027 A 
ATOM      4  C4  DEN d   1       5.998   3.685  -5.790  0.00  0.00     0.027 A 
ATOM      5  C5  DEN d   1       6.000   2.328  -5.556  0.00  0.00    -0.003 A 
ATOM      6  C6  DEN d   1       4.909   1.672  -5.050  0.00  0.00     0.001 A 
ATOM      7  C7  DEN d   1       3.754   2.367  -4.803  0.00  0.00     0.017 A 
ATOM      8  C8  DEN d   1       3.747   3.737  -5.029  0.00  0.00    -0.094 A 
ATOM      9  C9  DEN d   1       4.856   4.379  -5.552  0.00  0.00    -0.072 A 
ENDROOT
TORSDOF 0
ENDMDL
