MODEL 1
REMARK minimizedAffinity 16.8393841
REMARK minimizedRMSD -1
REMARK  0 active torsions:
REMARK  status: ('A' for Active; 'I' for Inactive)
ROOT
ATOM      1  C1  DEN d   1      -3.349   1.500  -2.106  0.00  0.00     0.130 A 
ATOM      2  C2  DEN d   1      -2.402   2.476  -2.639  0.00  0.00    -0.031 A 
ATOM      3  C3  DEN d   1      -2.735   2.707  -4.059  0.00  0.00     0.027 A 
ATOM      4  C4  DEN d   1      -4.618   1.658  -5.475  0.00  0.00     0.027 A 
ATOM      5  C5  DEN d   1      -5.668   0.767  -5.463  0.00  0.00    -0.003 A 
ATOM      6  C6  DEN d   1      -5.996   0.039  -4.350  0.00  0.00     0.001 A 
ATOM      7  C7  DEN d   1      -5.293   0.222  -3.189  0.00  0.00     0.017 A 
ATOM      8  C8  DEN d   1      -4.228   1.113  -3.195  0.00  0.00    -0.094 A 
ATOM      9  C9  DEN d   1      -3.920   1.849  -4.327  0.00  0.00    -0.072 A 
ENDROOT
TORSDOF 0
ENDMDL
