MODEL 1
REMARK minimizedAffinity 14.6488295
REMARK minimizedRMSD -1
REMARK  0 active torsions:
REMARK  status: ('A' for Active; 'I' for Inactive)
ROOT
ATOM      1  C1  DEN d   1       4.247   2.025  -4.567  0.00  0.00     0.130 A 
ATOM      2  C2  DEN d   1       5.530   1.745  -5.204  0.00  0.00    -0.031 A 
ATOM      3  C3  DEN d   1       5.982   2.977  -5.881  0.00  0.00     0.027 A 
ATOM      4  C4  DEN d   1       4.827   5.281  -5.998  0.00  0.00     0.027 A 
ATOM      5  C5  DEN d   1       3.714   5.999  -5.620  0.00  0.00    -0.003 A 
ATOM      6  C6  DEN d   1       2.693   5.438  -4.899  0.00  0.00     0.001 A 
ATOM      7  C7  DEN d   1       2.785   4.132  -4.494  0.00  0.00     0.017 A 
ATOM      8  C8  DEN d   1       3.901   3.400  -4.878  0.00  0.00    -0.094 A 
ATOM      9  C9  DEN d   1       4.928   3.988  -5.597  0.00  0.00    -0.072 A 
ENDROOT
TORSDOF 0
ENDMDL
