MODEL 1
REMARK minimizedAffinity 10.7861452
REMARK minimizedRMSD -1
REMARK  0 active torsions:
REMARK  status: ('A' for Active; 'I' for Inactive)
ROOT
ATOM      1  C1  DEN d   1       1.311   5.997  -5.503  0.00  0.00     0.130 A 
ATOM      2  C2  DEN d   1       0.417   4.965  -4.986  0.00  0.00    -0.031 A 
ATOM      3  C3  DEN d   1       1.223   3.757  -4.714  0.00  0.00     0.027 A 
ATOM      4  C4  DEN d   1       3.755   3.389  -5.039  0.00  0.00     0.027 A 
ATOM      5  C5  DEN d   1       4.928   3.971  -5.464  0.00  0.00    -0.003 A 
ATOM      6  C6  DEN d   1       4.973   5.248  -5.959  0.00  0.00     0.001 A 
ATOM      7  C7  DEN d   1       3.829   6.000  -6.000  0.00  0.00     0.017 A 
ATOM      8  C8  DEN d   1       2.640   5.417  -5.580  0.00  0.00    -0.094 A 
ATOM      9  C9  DEN d   1       2.618   4.129  -5.072  0.00  0.00    -0.072 A 
ENDROOT
TORSDOF 0
ENDMDL
