MODEL 1
REMARK minimizedAffinity -3.77287412
REMARK minimizedRMSD -1
REMARK  0 active torsions:
REMARK  status: ('A' for Active; 'I' for Inactive)
ROOT
ATOM      1  C   UNL d   1       1.480  -1.079   3.074  0.00  0.00     0.172 C 
ATOM      2  N   UNL d   1       1.263  -0.740   1.687  0.00  0.00    -0.070 N 
ATOM      3  C1  UNL d   1       0.169  -0.085   1.187  0.00  0.00    -0.004 A 
ATOM      4  C2  UNL d   1       0.342   0.046  -0.174  0.00  0.00    -0.047 A 
ATOM      5  C3  UNL d   1       1.581  -0.552  -0.504  0.00  0.00    -0.047 A 
ATOM      6  C4  UNL d   1       2.130  -1.031   0.667  0.00  0.00    -0.004 A 
ENDROOT
TORSDOF 0
ENDMDL
