MODEL 1
REMARK minimizedAffinity -1.05040181
REMARK minimizedRMSD -1
REMARK  0 active torsions:
REMARK  status: ('A' for Active; 'I' for Inactive)
ROOT
ATOM      1  C   UNL d   1       0.596  -1.104   2.493  0.00  0.00     0.172 C 
ATOM      2  N   UNL d   1       0.325  -0.635   1.154  0.00  0.00    -0.070 N 
ATOM      3  C1  UNL d   1       1.107  -0.865   0.054  0.00  0.00    -0.004 A 
ATOM      4  C2  UNL d   1       0.507  -0.254  -1.026  0.00  0.00    -0.047 A 
ATOM      5  C3  UNL d   1      -0.676   0.367  -0.558  0.00  0.00    -0.047 A 
ATOM      6  C4  UNL d   1      -0.764   0.115   0.795  0.00  0.00    -0.004 A 
ENDROOT
TORSDOF 0
ENDMDL
