MODEL 1
REMARK minimizedAffinity -2.80269146
REMARK minimizedRMSD -1
REMARK  0 active torsions:
REMARK  status: ('A' for Active; 'I' for Inactive)
ROOT
ATOM      1  C   UNL d   1      -1.319   0.187   0.100  0.00  0.00     0.172 C 
ATOM      2  N   UNL d   1       0.061  -0.234   0.169  0.00  0.00    -0.070 N 
ATOM      3  C1  UNL d   1       0.865  -0.154   1.274  0.00  0.00    -0.004 A 
ATOM      4  C2  UNL d   1       2.103  -0.655   0.932  0.00  0.00    -0.047 A 
ATOM      5  C3  UNL d   1       2.040  -1.048  -0.426  0.00  0.00    -0.047 A 
ATOM      6  C4  UNL d   1       0.765  -0.776  -0.874  0.00  0.00    -0.004 A 
ENDROOT
TORSDOF 0
ENDMDL
