MODEL 1
REMARK minimizedAffinity -2.60483766
REMARK minimizedRMSD -1
REMARK  0 active torsions:
REMARK  status: ('A' for Active; 'I' for Inactive)
ROOT
ATOM      1  C   UNL d   1      -0.604   1.554  -1.279  0.00  0.00     0.172 C 
ATOM      2  N   UNL d   1      -0.321   0.701  -0.148  0.00  0.00    -0.070 N 
ATOM      3  C1  UNL d   1       0.675  -0.236  -0.085  0.00  0.00    -0.004 A 
ATOM      4  C2  UNL d   1       0.614  -0.833   1.156  0.00  0.00    -0.047 A 
ATOM      5  C3  UNL d   1      -0.456  -0.235   1.862  0.00  0.00    -0.047 A 
ATOM      6  C4  UNL d   1      -1.018   0.711   1.032  0.00  0.00    -0.004 A 
ENDROOT
TORSDOF 0
ENDMDL
