MODEL 1
REMARK minimizedAffinity -2.44769454
REMARK minimizedRMSD -1
REMARK  0 active torsions:
REMARK  status: ('A' for Active; 'I' for Inactive)
ROOT
ATOM      1  C   UNL d   1       0.090   2.852  -1.910  0.00  0.00     0.172 C 
ATOM      2  N   UNL d   1      -0.359   1.537  -1.516  0.00  0.00    -0.070 N 
ATOM      3  C1  UNL d   1      -1.143   0.703  -2.267  0.00  0.00    -0.004 A 
ATOM      4  C2  UNL d   1      -1.347  -0.451  -1.541  0.00  0.00    -0.047 A 
ATOM      5  C3  UNL d   1      -0.663  -0.305  -0.311  0.00  0.00    -0.047 A 
ATOM      6  C4  UNL d   1      -0.060   0.935  -0.322  0.00  0.00    -0.004 A 
ENDROOT
TORSDOF 0
ENDMDL
