MODEL 1
REMARK minimizedAffinity -1.72128069
REMARK minimizedRMSD -1
REMARK  0 active torsions:
REMARK  status: ('A' for Active; 'I' for Inactive)
ROOT
ATOM      1  C   UNL d   1       0.414  -1.082   2.566  0.00  0.00     0.172 C 
ATOM      2  N   UNL d   1       0.585  -0.883   1.146  0.00  0.00    -0.070 N 
ATOM      3  C1  UNL d   1       1.579  -1.428   0.378  0.00  0.00    -0.004 A 
ATOM      4  C2  UNL d   1       1.393  -1.000  -0.918  0.00  0.00    -0.047 A 
ATOM      5  C3  UNL d   1       0.248  -0.168  -0.930  0.00  0.00    -0.047 A 
ATOM      6  C4  UNL d   1      -0.233  -0.114   0.362  0.00  0.00    -0.004 A 
ENDROOT
TORSDOF 0
ENDMDL
