MODEL 1
REMARK minimizedAffinity -2.1230011
REMARK minimizedRMSD -1
REMARK  0 active torsions:
REMARK  status: ('A' for Active; 'I' for Inactive)
ROOT
ATOM      1  C   UNL d   1       0.330  -1.002  -1.841  0.00  0.00     0.172 C 
ATOM      2  N   UNL d   1       0.018  -0.200  -0.681  0.00  0.00    -0.070 N 
ATOM      3  C1  UNL d   1      -0.013   1.168  -0.642  0.00  0.00    -0.004 A 
ATOM      4  C2  UNL d   1      -0.352   1.546   0.640  0.00  0.00    -0.047 A 
ATOM      5  C3  UNL d   1      -0.529   0.363   1.397  0.00  0.00    -0.047 A 
ATOM      6  C4  UNL d   1      -0.294  -0.703   0.554  0.00  0.00    -0.004 A 
ENDROOT
TORSDOF 0
ENDMDL
