MODEL 1
REMARK minimizedAffinity -3.58864164
REMARK minimizedRMSD -1
REMARK  0 active torsions:
REMARK  status: ('A' for Active; 'I' for Inactive)
ROOT
ATOM      1  C   UNL d   1      -3.762   3.819  -3.006  0.00  0.00     0.172 C 
ATOM      2  N   UNL d   1      -4.428   2.558  -3.233  0.00  0.00    -0.070 N 
ATOM      3  C1  UNL d   1      -3.872   1.318  -3.060  0.00  0.00    -0.004 A 
ATOM      4  C2  UNL d   1      -4.829   0.379  -3.379  0.00  0.00    -0.047 A 
ATOM      5  C3  UNL d   1      -6.000   1.078  -3.756  0.00  0.00    -0.047 A 
ATOM      6  C4  UNL d   1      -5.724   2.425  -3.657  0.00  0.00    -0.004 A 
ENDROOT
TORSDOF 0
ENDMDL
