MODEL 1
REMARK minimizedAffinity -3.62074161
REMARK minimizedRMSD -1
REMARK  0 active torsions:
REMARK  status: ('A' for Active; 'I' for Inactive)
ROOT
ATOM      1  C   UNL d   1      -0.699  -0.087  -1.035  0.00  0.00     0.172 C 
ATOM      2  N   UNL d   1       0.133  -0.211   0.138  0.00  0.00    -0.070 N 
ATOM      3  C1  UNL d   1      -0.306  -0.191   1.435  0.00  0.00    -0.004 A 
ATOM      4  C2  UNL d   1       0.792  -0.338   2.255  0.00  0.00    -0.047 A 
ATOM      5  C3  UNL d   1       1.930  -0.450   1.422  0.00  0.00    -0.047 A 
ATOM      6  C4  UNL d   1       1.494  -0.368   0.117  0.00  0.00    -0.004 A 
ENDROOT
TORSDOF 0
ENDMDL
