MODEL 1
REMARK minimizedAffinity -1.23951554
REMARK minimizedRMSD -1
REMARK  0 active torsions:
REMARK  status: ('A' for Active; 'I' for Inactive)
ROOT
ATOM      1  C   UNL d   1      -1.761  -0.743   0.349  0.00  0.00     0.172 C 
ATOM      2  N   UNL d   1      -0.558  -0.223  -0.259  0.00  0.00    -0.070 N 
ATOM      3  C1  UNL d   1       0.540  -0.960  -0.613  0.00  0.00    -0.004 A 
ATOM      4  C2  UNL d   1       1.468  -0.100  -1.159  0.00  0.00    -0.047 A 
ATOM      5  C3  UNL d   1       0.908   1.200  -1.131  0.00  0.00    -0.047 A 
ATOM      6  C4  UNL d   1      -0.346   1.095  -0.569  0.00  0.00    -0.004 A 
ENDROOT
TORSDOF 0
ENDMDL
