MODEL 1
REMARK minimizedAffinity -1.3101685
REMARK minimizedRMSD -1
REMARK  0 active torsions:
REMARK  status: ('A' for Active; 'I' for Inactive)
ROOT
ATOM      1  C   UNL d   1      -0.418   1.078  -1.867  0.00  0.00     0.172 C 
ATOM      2  N   UNL d   1       0.261   0.235  -0.911  0.00  0.00    -0.070 N 
ATOM      3  C1  UNL d   1       0.143   0.316   0.451  0.00  0.00    -0.004 A 
ATOM      4  C2  UNL d   1       0.946  -0.658   1.003  0.00  0.00    -0.047 A 
ATOM      5  C3  UNL d   1       1.569  -1.349  -0.064  0.00  0.00    -0.047 A 
ATOM      6  C4  UNL d   1       1.127  -0.775  -1.238  0.00  0.00    -0.004 A 
ENDROOT
TORSDOF 0
ENDMDL
