MODEL 1
REMARK minimizedAffinity -2.61553621
REMARK minimizedRMSD -1
REMARK  0 active torsions:
REMARK  status: ('A' for Active; 'I' for Inactive)
ROOT
ATOM      1  C   UNL d   1      -3.001   2.765   4.120  0.00  0.00     0.172 C 
ATOM      2  N   UNL d   1      -4.171   2.036   4.552  0.00  0.00    -0.070 N 
ATOM      3  C1  UNL d   1      -4.965   1.256   3.754  0.00  0.00    -0.004 A 
ATOM      4  C2  UNL d   1      -5.971   0.737   4.539  0.00  0.00    -0.047 A 
ATOM      5  C3  UNL d   1      -5.775   1.222   5.854  0.00  0.00    -0.047 A 
ATOM      6  C4  UNL d   1      -4.654   2.024   5.833  0.00  0.00    -0.004 A 
ENDROOT
TORSDOF 0
ENDMDL
