MODEL 1
REMARK minimizedAffinity -5.28461504
REMARK minimizedRMSD -1
REMARK  2 active torsions:
REMARK  status: ('A' for Active; 'I' for Inactive)
REMARK    1  A    between atoms: C2'_3  and  C1'_4 
REMARK    2  A    between atoms: C1'_4  and  C1_5 
ROOT
ATOM      1  C1  I4B d   1       1.307   0.132   1.128  0.00  0.00    -0.075 A 
ATOM      2  C2  I4B d   1       0.320   0.743   0.396  0.00  0.00     0.003 A 
ATOM      3  C3  I4B d   1      -0.970   0.165   0.315  0.00  0.00     0.002 A 
ATOM      4  C4  I4B d   1      -1.213  -1.043   0.936  0.00  0.00    -0.004 A 
ATOM      5  C5  I4B d   1      -0.218  -1.650   1.697  0.00  0.00     0.002 A 
ATOM      6  C6  I4B d   1       1.046  -1.053   1.804  0.00  0.00     0.003 A 
ENDROOT
BRANCH   1   7
ATOM      7  C1' I4B d   1       2.667   0.753   1.165  0.00  0.00     0.060 C 
BRANCH   7   8
ATOM      8  C2' I4B d   1       3.646  -0.229   0.554  0.00  0.00    -0.013 C 
ATOM      9  C4' I4B d   1       3.750  -1.481   1.384  0.00  0.00     0.013 C 
ATOM     10  C3' I4B d   1       3.183  -0.538  -0.838  0.00  0.00     0.013 C 
ENDBRANCH   7   8
ENDBRANCH   1   7
TORSDOF 2
ENDMDL
