MODEL 1
REMARK minimizedAffinity -3.67429328
REMARK minimizedRMSD -1
REMARK  2 active torsions:
REMARK  status: ('A' for Active; 'I' for Inactive)
REMARK    1  A    between atoms: C2'_3  and  C1'_4 
REMARK    2  A    between atoms: C1'_4  and  C1_5 
ROOT
ATOM      1  C1  I4B d   1      -0.450  -0.046  -0.113  0.00  0.00    -0.075 A 
ATOM      2  C2  I4B d   1       0.260  -1.203   0.089  0.00  0.00     0.003 A 
ATOM      3  C3  I4B d   1       1.623  -1.145   0.471  0.00  0.00     0.002 A 
ATOM      4  C4  I4B d   1       2.244   0.082   0.589  0.00  0.00    -0.004 A 
ATOM      5  C5  I4B d   1       1.516   1.254   0.406  0.00  0.00     0.002 A 
ATOM      6  C6  I4B d   1       0.157   1.190   0.064  0.00  0.00     0.003 A 
ENDROOT
BRANCH   1   7
ATOM      7  C1' I4B d   1      -1.878  -0.144  -0.548  0.00  0.00     0.060 C 
BRANCH   7   8
ATOM      8  C2' I4B d   1      -1.927   0.084  -2.045  0.00  0.00    -0.013 C 
ATOM      9  C4' I4B d   1      -1.894  -1.221  -2.796  0.00  0.00     0.013 C 
ATOM     10  C3' I4B d   1      -3.174   0.856  -2.356  0.00  0.00     0.013 C 
ENDBRANCH   7   8
ENDBRANCH   1   7
TORSDOF 2
ENDMDL
