MODEL 1
REMARK minimizedAffinity -4.82182169
REMARK minimizedRMSD -1
REMARK  2 active torsions:
REMARK  status: ('A' for Active; 'I' for Inactive)
REMARK    1  A    between atoms: C2'_3  and  C1'_4 
REMARK    2  A    between atoms: C1'_4  and  C1_5 
ROOT
ATOM      1  C1  I4B d   1      -0.491  -0.234  -0.119  0.00  0.00    -0.075 A 
ATOM      2  C2  I4B d   1       0.305  -1.314   0.171  0.00  0.00     0.003 A 
ATOM      3  C3  I4B d   1       1.667  -1.126   0.509  0.00  0.00     0.002 A 
ATOM      4  C4  I4B d   1       2.201   0.147   0.497  0.00  0.00    -0.004 A 
ATOM      5  C5  I4B d   1       1.387   1.243   0.226  0.00  0.00     0.002 A 
ATOM      6  C6  I4B d   1       0.029   1.053  -0.072  0.00  0.00     0.003 A 
ENDROOT
BRANCH   1   7
ATOM      7  C1' I4B d   1      -1.916  -0.472  -0.505  0.00  0.00     0.060 C 
BRANCH   7   8
ATOM      8  C2' I4B d   1      -2.003  -0.433  -2.017  0.00  0.00    -0.013 C 
ATOM      9  C4' I4B d   1      -2.021  -1.822  -2.598  0.00  0.00     0.013 C 
ATOM     10  C3' I4B d   1      -3.242   0.326  -2.389  0.00  0.00     0.013 C 
ENDBRANCH   7   8
ENDBRANCH   1   7
TORSDOF 2
ENDMDL
