MODEL 1
REMARK minimizedAffinity -1.14043176
REMARK minimizedRMSD -1
REMARK  2 active torsions:
REMARK  status: ('A' for Active; 'I' for Inactive)
REMARK    1  A    between atoms: C2'_3  and  C1'_4 
REMARK    2  A    between atoms: C1'_4  and  C1_5 
ROOT
ATOM      1  C1  I4B d   1      -0.578   0.661  -0.289  0.00  0.00    -0.075 A 
ATOM      2  C2  I4B d   1      -0.288  -0.496   0.389  0.00  0.00     0.003 A 
ATOM      3  C3  I4B d   1       0.946  -0.633   1.071  0.00  0.00     0.002 A 
ATOM      4  C4  I4B d   1       1.874   0.386   1.006  0.00  0.00    -0.004 A 
ATOM      5  C5  I4B d   1       1.569   1.567   0.337  0.00  0.00     0.002 A 
ATOM      6  C6  I4B d   1       0.330   1.711  -0.305  0.00  0.00     0.003 A 
ENDROOT
BRANCH   1   7
ATOM      7  C1' I4B d   1      -1.877   0.759  -1.026  0.00  0.00     0.060 C 
BRANCH   7   8
ATOM      8  C2' I4B d   1      -1.641   0.299  -2.450  0.00  0.00    -0.013 C 
ATOM      9  C4' I4B d   1      -1.812  -1.192  -2.577  0.00  0.00     0.013 C 
ATOM     10  C3' I4B d   1      -2.602   1.032  -3.338  0.00  0.00     0.013 C 
ENDBRANCH   7   8
ENDBRANCH   1   7
TORSDOF 2
ENDMDL
