MODEL 1
REMARK minimizedAffinity -0.893704236
REMARK minimizedRMSD -1
REMARK  2 active torsions:
REMARK  status: ('A' for Active; 'I' for Inactive)
REMARK    1  A    between atoms: C2'_3  and  C1'_4 
REMARK    2  A    between atoms: C1'_4  and  C1_5 
ROOT
ATOM      1  C1  I4B d   1      -0.648  -0.273  -0.437  0.00  0.00    -0.075 A 
ATOM      2  C2  I4B d   1       0.508   0.401  -0.741  0.00  0.00     0.003 A 
ATOM      3  C3  I4B d   1       1.751  -0.051  -0.234  0.00  0.00     0.002 A 
ATOM      4  C4  I4B d   1       1.784  -1.144   0.608  0.00  0.00    -0.004 A 
ATOM      5  C5  I4B d   1       0.614  -1.839   0.897  0.00  0.00     0.002 A 
ATOM      6  C6  I4B d   1      -0.609  -1.409   0.362  0.00  0.00     0.003 A 
ENDROOT
BRANCH   1   7
ATOM      7  C1' I4B d   1      -1.947   0.251  -0.962  0.00  0.00     0.060 C 
BRANCH   7   8
ATOM      8  C2' I4B d   1      -1.905   0.172  -2.475  0.00  0.00    -0.013 C 
ATOM      9  C4' I4B d   1      -2.396  -1.164  -2.965  0.00  0.00     0.013 C 
ATOM     10  C3' I4B d   1      -2.742   1.290  -3.020  0.00  0.00     0.013 C 
ENDBRANCH   7   8
ENDBRANCH   1   7
TORSDOF 2
ENDMDL
