MODEL 1
REMARK minimizedAffinity -3.45421576
REMARK minimizedRMSD -1
REMARK  2 active torsions:
REMARK  status: ('A' for Active; 'I' for Inactive)
REMARK    1  A    between atoms: C2'_3  and  C1'_4 
REMARK    2  A    between atoms: C1'_4  and  C1_5 
ROOT
ATOM      1  C1  I4B d   1      -1.295   0.396  -0.982  0.00  0.00    -0.075 A 
ATOM      2  C2  I4B d   1      -1.698  -0.913  -1.066  0.00  0.00     0.003 A 
ATOM      3  C3  I4B d   1      -2.597  -1.319  -2.081  0.00  0.00     0.002 A 
ATOM      4  C4  I4B d   1      -3.104  -0.379  -2.956  0.00  0.00    -0.004 A 
ATOM      5  C5  I4B d   1      -2.677   0.943  -2.884  0.00  0.00     0.002 A 
ATOM      6  C6  I4B d   1      -1.757   1.332  -1.899  0.00  0.00     0.003 A 
ENDROOT
BRANCH   1   7
ATOM      7  C1' I4B d   1      -0.371   0.797   0.123  0.00  0.00     0.060 C 
BRANCH   7   8
ATOM      8  C2' I4B d   1       0.536  -0.380   0.422  0.00  0.00    -0.013 C 
ATOM      9  C4' I4B d   1       1.827   0.074   1.051  0.00  0.00     0.013 C 
ATOM     10  C3' I4B d   1      -0.206  -1.318   1.326  0.00  0.00     0.013 C 
ENDBRANCH   7   8
ENDBRANCH   1   7
TORSDOF 2
ENDMDL
