MODEL 1
REMARK minimizedAffinity -4.61645222
REMARK minimizedRMSD -1
REMARK  1 active torsions:
REMARK  status: ('A' for Active; 'I' for Inactive)
REMARK    1  A    between atoms: N_2  and  C1_3 
ROOT
ATOM      1  C1  UNL d   1      -0.258  -0.004   0.116  0.00  0.00     0.143 A 
ATOM      2  C2  UNL d   1      -1.148  -0.130   1.189  0.00  0.00    -0.057 A 
ATOM      3  C3  UNL d   1      -0.689  -0.380   2.488  0.00  0.00     0.033 A 
ATOM      4  C4  UNL d   1       0.671  -0.538   2.733  0.00  0.00    -0.042 A 
ATOM      5  C5  UNL d   1       1.572  -0.442   1.678  0.00  0.00     0.033 A 
ATOM      6  C6  UNL d   1       1.108  -0.185   0.384  0.00  0.00    -0.057 A 
ENDROOT
BRANCH   1   7
ATOM      7  N   UNL d   1      -0.658   0.147  -1.213  0.00  0.00    -0.732 N 
ATOM      8  C   UNL d   1      -0.350   1.357  -1.944  0.00  0.00     0.284 C 
ATOM      9  H3  UNL d   1      -0.539  -0.707  -1.754  0.00  0.00     0.395 HD
ENDBRANCH   1   7
TORSDOF 1
ENDMDL
