MODEL 1
REMARK minimizedAffinity -3.48251104
REMARK minimizedRMSD -1
REMARK  1 active torsions:
REMARK  status: ('A' for Active; 'I' for Inactive)
REMARK    1  A    between atoms: N_2  and  C1_3 
ROOT
ATOM      1  C1  UNL d   1      -0.495  -0.178   0.924  0.00  0.00     0.143 A 
ATOM      2  C2  UNL d   1      -1.106  -0.745   2.047  0.00  0.00    -0.057 A 
ATOM      3  C3  UNL d   1      -0.352  -1.168   3.149  0.00  0.00     0.033 A 
ATOM      4  C4  UNL d   1       1.034  -1.058   3.133  0.00  0.00    -0.042 A 
ATOM      5  C5  UNL d   1       1.666  -0.520   2.017  0.00  0.00     0.033 A 
ATOM      6  C6  UNL d   1       0.906  -0.094   0.923  0.00  0.00    -0.057 A 
ENDROOT
BRANCH   1   7
ATOM      7  N   UNL d   1      -1.181   0.171  -0.242  0.00  0.00    -0.732 N 
ATOM      8  C   UNL d   1      -0.480   0.286  -1.503  0.00  0.00     0.284 C 
ATOM      9  H3  UNL d   1      -2.088  -0.286  -0.311  0.00  0.00     0.395 HD
ENDBRANCH   1   7
TORSDOF 1
ENDMDL
