MODEL 1
REMARK minimizedAffinity -4.39901972
REMARK minimizedRMSD -1
REMARK  1 active torsions:
REMARK  status: ('A' for Active; 'I' for Inactive)
REMARK    1  A    between atoms: N_2  and  C1_3 
ROOT
ATOM      1  C1  UNL d   1       0.242   0.160  -0.380  0.00  0.00     0.143 A 
ATOM      2  C2  UNL d   1       1.455   0.095   0.315  0.00  0.00    -0.057 A 
ATOM      3  C3  UNL d   1       1.499  -0.272   1.665  0.00  0.00     0.033 A 
ATOM      4  C4  UNL d   1       0.324  -0.554   2.354  0.00  0.00    -0.042 A 
ATOM      5  C5  UNL d   1      -0.895  -0.472   1.690  0.00  0.00     0.033 A 
ATOM      6  C6  UNL d   1      -0.932  -0.111   0.340  0.00  0.00    -0.057 A 
ENDROOT
BRANCH   1   7
ATOM      7  N   UNL d   1       0.123   0.614  -1.696  0.00  0.00    -0.732 N 
ATOM      8  C   UNL d   1      -0.776   1.700  -2.023  0.00  0.00     0.284 C 
ATOM      9  H3  UNL d   1       1.020   0.659  -2.174  0.00  0.00     0.395 HD
ENDBRANCH   1   7
TORSDOF 1
ENDMDL
