MODEL 1
REMARK minimizedAffinity -2.35156584
REMARK minimizedRMSD -1
REMARK  1 active torsions:
REMARK  status: ('A' for Active; 'I' for Inactive)
REMARK    1  A    between atoms: N_2  and  C1_3 
ROOT
ATOM      1  C1  UNL d   1       0.736  -0.458   1.053  0.00  0.00     0.143 A 
ATOM      2  C2  UNL d   1       1.603  -0.644  -0.030  0.00  0.00    -0.057 A 
ATOM      3  C3  UNL d   1       1.196  -0.369  -1.341  0.00  0.00     0.033 A 
ATOM      4  C4  UNL d   1      -0.098   0.072  -1.597  0.00  0.00    -0.042 A 
ATOM      5  C5  UNL d   1      -0.984   0.240  -0.539  0.00  0.00     0.033 A 
ATOM      6  C6  UNL d   1      -0.571  -0.030   0.769  0.00  0.00    -0.057 A 
ENDROOT
BRANCH   1   7
ATOM      7  N   UNL d   1       1.049  -0.807   2.369  0.00  0.00    -0.732 N 
ATOM      8  C   UNL d   1       0.262  -1.795   3.076  0.00  0.00     0.284 C 
ATOM      9  H3  UNL d   1       2.051  -0.887   2.521  0.00  0.00     0.395 HD
ENDBRANCH   1   7
TORSDOF 1
ENDMDL
