MODEL 1
REMARK minimizedAffinity -3.82940626
REMARK minimizedRMSD -1
REMARK  1 active torsions:
REMARK  status: ('A' for Active; 'I' for Inactive)
REMARK    1  A    between atoms: N_2  and  C1_3 
ROOT
ATOM      1  C1  UNL d   1      -0.706  -1.326   1.404  0.00  0.00     0.143 A 
ATOM      2  C2  UNL d   1      -0.752  -1.846   2.702  0.00  0.00    -0.057 A 
ATOM      3  C3  UNL d   1       0.173  -2.805   3.133  0.00  0.00     0.033 A 
ATOM      4  C4  UNL d   1       1.146  -3.282   2.261  0.00  0.00    -0.042 A 
ATOM      5  C5  UNL d   1       1.196  -2.798   0.959  0.00  0.00     0.033 A 
ATOM      6  C6  UNL d   1       0.273  -1.836   0.536  0.00  0.00    -0.057 A 
ENDROOT
BRANCH   1   7
ATOM      7  N   UNL d   1      -1.657  -0.445   0.885  0.00  0.00    -0.732 N 
ATOM      8  C   UNL d   1      -1.732  -0.194  -0.539  0.00  0.00     0.284 C 
ATOM      9  H3  UNL d   1      -2.563  -0.541   1.338  0.00  0.00     0.395 HD
ENDBRANCH   1   7
TORSDOF 1
ENDMDL
