MODEL 1
REMARK minimizedAffinity -3.66953993
REMARK minimizedRMSD -1
REMARK  1 active torsions:
REMARK  status: ('A' for Active; 'I' for Inactive)
REMARK    1  A    between atoms: N_2  and  C1_3 
ROOT
ATOM      1  C1  UNL d   1      -0.756   0.988  -1.505  0.00  0.00     0.143 A 
ATOM      2  C2  UNL d   1       0.226   1.889  -1.929  0.00  0.00    -0.057 A 
ATOM      3  C3  UNL d   1      -0.076   2.924  -2.822  0.00  0.00     0.033 A 
ATOM      4  C4  UNL d   1      -1.364   3.059  -3.330  0.00  0.00    -0.042 A 
ATOM      5  C5  UNL d   1      -2.350   2.159  -2.942  0.00  0.00     0.033 A 
ATOM      6  C6  UNL d   1      -2.044   1.132  -2.045  0.00  0.00    -0.057 A 
ENDROOT
BRANCH   1   7
ATOM      7  N   UNL d   1      -0.497  -0.122  -0.696  0.00  0.00    -0.732 N 
ATOM      8  C   UNL d   1       0.847  -0.402  -0.238  0.00  0.00     0.284 C 
ATOM      9  H3  UNL d   1      -1.215  -0.263   0.011  0.00  0.00     0.395 HD
ENDBRANCH   1   7
TORSDOF 1
ENDMDL
