MODEL 1
REMARK minimizedAffinity 7.25840235
REMARK minimizedRMSD -1
REMARK  1 active torsions:
REMARK  status: ('A' for Active; 'I' for Inactive)
REMARK    1  A    between atoms: N_2  and  C1_3 
ROOT
ATOM      1  C1  UNL d   1       0.496   2.896   0.001  0.00  0.00     0.143 A 
ATOM      2  C2  UNL d   1       1.161   2.347   1.103  0.00  0.00    -0.057 A 
ATOM      3  C3  UNL d   1       0.463   1.967   2.256  0.00  0.00     0.033 A 
ATOM      4  C4  UNL d   1      -0.912   2.159   2.340  0.00  0.00    -0.042 A 
ATOM      5  C5  UNL d   1      -1.589   2.727   1.266  0.00  0.00     0.033 A 
ATOM      6  C6  UNL d   1      -0.889   3.097   0.115  0.00  0.00    -0.057 A 
ENDROOT
BRANCH   1   7
ATOM      7  N   UNL d   1       1.146   3.384  -1.135  0.00  0.00    -0.732 N 
ATOM      8  C   UNL d   1       2.105   4.462  -1.030  0.00  0.00     0.284 C 
ATOM      9  H3  UNL d   1       1.423   2.641  -1.773  0.00  0.00     0.395 HD
ENDBRANCH   1   7
TORSDOF 1
ENDMDL
