MODEL 1
REMARK minimizedAffinity 10.5959969
REMARK minimizedRMSD -1
REMARK  1 active torsions:
REMARK  status: ('A' for Active; 'I' for Inactive)
REMARK    1  A    between atoms: N_2  and  C1_3 
ROOT
ATOM      1  C1  UNL d   1      -1.723   3.563   1.185  0.00  0.00     0.143 A 
ATOM      2  C2  UNL d   1      -1.345   3.997  -0.090  0.00  0.00    -0.057 A 
ATOM      3  C3  UNL d   1      -0.410   3.285  -0.852  0.00  0.00     0.033 A 
ATOM      4  C4  UNL d   1       0.187   2.139  -0.338  0.00  0.00    -0.042 A 
ATOM      5  C5  UNL d   1      -0.154   1.703   0.938  0.00  0.00     0.033 A 
ATOM      6  C6  UNL d   1      -1.093   2.414   1.691  0.00  0.00    -0.057 A 
ENDROOT
BRANCH   1   7
ATOM      7  N   UNL d   1      -2.572   4.280   2.031  0.00  0.00    -0.732 N 
ATOM      8  C   UNL d   1      -2.864   5.674   1.774  0.00  0.00     0.284 C 
ATOM      9  H3  UNL d   1      -3.379   3.734   2.325  0.00  0.00     0.395 HD
ENDBRANCH   1   7
TORSDOF 1
ENDMDL
