MODEL 1
REMARK minimizedAffinity 11.8481684
REMARK minimizedRMSD -1
REMARK  1 active torsions:
REMARK  status: ('A' for Active; 'I' for Inactive)
REMARK    1  A    between atoms: N_2  and  C1_3 
ROOT
ATOM      1  C1  UNL d   1      -1.447   4.556   0.326  0.00  0.00     0.143 A 
ATOM      2  C2  UNL d   1      -0.955   3.628   1.250  0.00  0.00    -0.057 A 
ATOM      3  C3  UNL d   1      -0.136   2.566   0.847  0.00  0.00     0.033 A 
ATOM      4  C4  UNL d   1       0.182   2.396  -0.496  0.00  0.00    -0.042 A 
ATOM      5  C5  UNL d   1      -0.316   3.291  -1.436  0.00  0.00     0.033 A 
ATOM      6  C6  UNL d   1      -1.128   4.354  -1.026  0.00  0.00    -0.057 A 
ENDROOT
BRANCH   1   7
ATOM      7  N   UNL d   1      -2.345   5.575   0.650  0.00  0.00    -0.732 N 
ATOM      8  C   UNL d   1      -2.685   5.847   2.030  0.00  0.00     0.284 C 
ATOM      9  H3  UNL d   1      -2.206   6.409   0.084  0.00  0.00     0.395 HD
ENDBRANCH   1   7
TORSDOF 1
ENDMDL
