MODEL 1
REMARK minimizedAffinity 18.767355
REMARK minimizedRMSD -1
REMARK  1 active torsions:
REMARK  status: ('A' for Active; 'I' for Inactive)
REMARK    1  A    between atoms: N_2  and  C1_3 
ROOT
ATOM      1  C1  UNL d   1       0.776   4.142  -1.551  0.00  0.00     0.143 A 
ATOM      2  C2  UNL d   1       1.220   2.820  -1.445  0.00  0.00    -0.057 A 
ATOM      3  C3  UNL d   1       0.550   1.891  -0.640  0.00  0.00     0.033 A 
ATOM      4  C4  UNL d   1      -0.563   2.278   0.099  0.00  0.00    -0.042 A 
ATOM      5  C5  UNL d   1      -1.008   3.594   0.028  0.00  0.00     0.033 A 
ATOM      6  C6  UNL d   1      -0.338   4.515  -0.783  0.00  0.00    -0.057 A 
ENDROOT
BRANCH   1   7
ATOM      7  N   UNL d   1       1.457   5.137  -2.258  0.00  0.00    -0.732 N 
ATOM      8  C   UNL d   1       1.030   5.521  -3.586  0.00  0.00     0.284 C 
ATOM      9  H3  UNL d   1       1.727   5.919  -1.665  0.00  0.00     0.395 HD
ENDBRANCH   1   7
TORSDOF 1
ENDMDL
