MODEL 1
REMARK minimizedAffinity 10.3227329
REMARK minimizedRMSD -1
REMARK  1 active torsions:
REMARK  status: ('A' for Active; 'I' for Inactive)
REMARK    1  A    between atoms: N_2  and  C1_3 
ROOT
ATOM      1  C1  UNL d   1      -1.889   2.163  -0.281  0.00  0.00     0.143 A 
ATOM      2  C2  UNL d   1      -2.221   0.805  -0.299  0.00  0.00    -0.057 A 
ATOM      3  C3  UNL d   1      -3.382   0.349  -0.936  0.00  0.00     0.033 A 
ATOM      4  C4  UNL d   1      -4.249   1.251  -1.544  0.00  0.00    -0.042 A 
ATOM      5  C5  UNL d   1      -3.952   2.609  -1.517  0.00  0.00     0.033 A 
ATOM      6  C6  UNL d   1      -2.788   3.057  -0.885  0.00  0.00    -0.057 A 
ENDROOT
BRANCH   1   7
ATOM      7  N   UNL d   1      -0.801   2.690   0.420  0.00  0.00    -0.732 N 
ATOM      8  C   UNL d   1       0.554   2.359   0.034  0.00  0.00     0.284 C 
ATOM      9  H3  UNL d   1      -0.936   3.667   0.669  0.00  0.00     0.395 HD
ENDBRANCH   1   7
TORSDOF 1
ENDMDL
