MODEL 1
REMARK minimizedAffinity 4.06109047
REMARK minimizedRMSD -1
REMARK  1 active torsions:
REMARK  status: ('A' for Active; 'I' for Inactive)
REMARK    1  A    between atoms: N_2  and  C1_3 
ROOT
ATOM      1  C1  UNL d   1       0.194   2.999   0.457  0.00  0.00     0.143 A 
ATOM      2  C2  UNL d   1       0.716   2.490   1.651  0.00  0.00    -0.057 A 
ATOM      3  C3  UNL d   1      -0.116   2.187   2.736  0.00  0.00     0.033 A 
ATOM      4  C4  UNL d   1      -1.486   2.416   2.655  0.00  0.00    -0.042 A 
ATOM      5  C5  UNL d   1      -2.023   2.945   1.487  0.00  0.00     0.033 A 
ATOM      6  C6  UNL d   1      -1.188   3.239   0.405  0.00  0.00    -0.057 A 
ENDROOT
BRANCH   1   7
ATOM      7  N   UNL d   1       0.980   3.412  -0.621  0.00  0.00    -0.732 N 
ATOM      8  C   UNL d   1       2.045   4.373  -0.432  0.00  0.00     0.284 C 
ATOM      9  H3  UNL d   1       1.220   2.644  -1.244  0.00  0.00     0.395 HD
ENDBRANCH   1   7
TORSDOF 1
ENDMDL
