MODEL 1
REMARK minimizedAffinity -4.32407331
REMARK minimizedRMSD -1
REMARK  0 active torsions:
REMARK  status: ('A' for Active; 'I' for Inactive)
ROOT
ATOM      1  C1  BNZ d   1       1.661  -0.019  -2.225  0.00  0.00     0.000 A 
ATOM      2  C2  BNZ d   1       0.811   1.040  -2.052  0.00  0.00     0.000 A 
ATOM      3  C3  BNZ d   1      -0.185   0.992  -1.116  0.00  0.00     0.000 A 
ATOM      4  C4  BNZ d   1      -0.353  -0.128  -0.384  0.00  0.00     0.000 A 
ATOM      5  C5  BNZ d   1       0.490  -1.207  -0.554  0.00  0.00     0.000 A 
ATOM      6  C6  BNZ d   1       1.516  -1.141  -1.470  0.00  0.00     0.000 A 
ENDROOT
TORSDOF 0
ENDMDL
