MODEL 1
REMARK minimizedAffinity -4.94725847
REMARK minimizedRMSD -1
REMARK  0 active torsions:
REMARK  status: ('A' for Active; 'I' for Inactive)
ROOT
ATOM      1  C1  BNZ d   1       0.194   0.590  -0.869  0.00  0.00     0.000 A 
ATOM      2  C2  BNZ d   1       0.421   1.536  -1.833  0.00  0.00     0.000 A 
ATOM      3  C3  BNZ d   1       1.367   1.337  -2.799  0.00  0.00     0.000 A 
ATOM      4  C4  BNZ d   1       2.113   0.214  -2.777  0.00  0.00     0.000 A 
ATOM      5  C5  BNZ d   1       1.903  -0.745  -1.805  0.00  0.00     0.000 A 
ATOM      6  C6  BNZ d   1       0.923  -0.560  -0.858  0.00  0.00     0.000 A 
ENDROOT
TORSDOF 0
ENDMDL
