MODEL 1
REMARK minimizedAffinity -3.54924607
REMARK minimizedRMSD -1
REMARK  0 active torsions:
REMARK  status: ('A' for Active; 'I' for Inactive)
ROOT
ATOM      1  C1  BNZ d   1       0.289  -0.284  -1.009  0.00  0.00     0.000 A 
ATOM      2  C2  BNZ d   1       1.330  -0.420  -1.889  0.00  0.00     0.000 A 
ATOM      3  C3  BNZ d   1       2.156  -1.507  -1.833  0.00  0.00     0.000 A 
ATOM      4  C4  BNZ d   1       1.965  -2.436  -0.874  0.00  0.00     0.000 A 
ATOM      5  C5  BNZ d   1       0.926  -2.309   0.026  0.00  0.00     0.000 A 
ATOM      6  C6  BNZ d   1       0.073  -1.233  -0.058  0.00  0.00     0.000 A 
ENDROOT
TORSDOF 0
ENDMDL
