MODEL 1
REMARK minimizedAffinity -4.79635668
REMARK minimizedRMSD -1
REMARK  0 active torsions:
REMARK  status: ('A' for Active; 'I' for Inactive)
ROOT
ATOM      1  C1  BNZ d   1       0.206  -0.472  -0.170  0.00  0.00     0.000 A 
ATOM      2  C2  BNZ d   1       0.685  -1.730  -0.421  0.00  0.00     0.000 A 
ATOM      3  C3  BNZ d   1       1.822  -1.912  -1.158  0.00  0.00     0.000 A 
ATOM      4  C4  BNZ d   1       2.456  -0.840  -1.675  0.00  0.00     0.000 A 
ATOM      5  C5  BNZ d   1       1.980   0.434  -1.438  0.00  0.00     0.000 A 
ATOM      6  C6  BNZ d   1       0.858   0.616  -0.664  0.00  0.00     0.000 A 
ENDROOT
TORSDOF 0
ENDMDL
