MODEL 1
REMARK minimizedAffinity -4.12884712
REMARK minimizedRMSD -1
REMARK  0 active torsions:
REMARK  status: ('A' for Active; 'I' for Inactive)
ROOT
ATOM      1  C1  BNZ d   1       0.222  -1.677  -0.649  0.00  0.00     0.000 A 
ATOM      2  C2  BNZ d   1       1.555  -1.879  -0.889  0.00  0.00     0.000 A 
ATOM      3  C3  BNZ d   1       2.431  -0.830  -0.896  0.00  0.00     0.000 A 
ATOM      4  C4  BNZ d   1       1.969   0.422  -0.705  0.00  0.00     0.000 A 
ATOM      5  C5  BNZ d   1       0.626   0.643  -0.471  0.00  0.00     0.000 A 
ATOM      6  C6  BNZ d   1      -0.248  -0.419  -0.426  0.00  0.00     0.000 A 
ENDROOT
TORSDOF 0
ENDMDL
