MODEL 1
REMARK minimizedAffinity -4.67103338
REMARK minimizedRMSD -1
REMARK  0 active torsions:
REMARK  status: ('A' for Active; 'I' for Inactive)
ROOT
ATOM      1  C1  BNZ d   1       0.594  -1.742  -0.446  0.00  0.00     0.000 A 
ATOM      2  C2  BNZ d   1       1.703  -1.856  -1.241  0.00  0.00     0.000 A 
ATOM      3  C3  BNZ d   1       2.311  -0.746  -1.758  0.00  0.00     0.000 A 
ATOM      4  C4  BNZ d   1       1.787   0.472  -1.512  0.00  0.00     0.000 A 
ATOM      5  C5  BNZ d   1       0.664   0.603  -0.719  0.00  0.00     0.000 A 
ATOM      6  C6  BNZ d   1       0.078  -0.513  -0.169  0.00  0.00     0.000 A 
ENDROOT
TORSDOF 0
ENDMDL
