MODEL 1
REMARK minimizedAffinity -2.73268175
REMARK minimizedRMSD -1
REMARK  0 active torsions:
REMARK  status: ('A' for Active; 'I' for Inactive)
ROOT
ATOM      1  C1  BNZ d   1       1.000   0.649  -1.995  0.00  0.00     0.000 A 
ATOM      2  C2  BNZ d   1       0.139   0.571  -0.933  0.00  0.00     0.000 A 
ATOM      3  C3  BNZ d   1       0.077  -0.556  -0.163  0.00  0.00     0.000 A 
ATOM      4  C4  BNZ d   1       0.846  -1.618  -0.478  0.00  0.00     0.000 A 
ATOM      5  C5  BNZ d   1       1.713  -1.559  -1.551  0.00  0.00     0.000 A 
ATOM      6  C6  BNZ d   1       1.801  -0.408  -2.301  0.00  0.00     0.000 A 
ENDROOT
TORSDOF 0
ENDMDL
