MODEL 1
REMARK minimizedAffinity -4.58791018
REMARK minimizedRMSD -1
REMARK  0 active torsions:
REMARK  status: ('A' for Active; 'I' for Inactive)
ROOT
ATOM      1  C1  BNZ d   1       2.163  -0.969  -1.378  0.00  0.00     0.000 A 
ATOM      2  C2  BNZ d   1       1.449  -1.988  -0.804  0.00  0.00     0.000 A 
ATOM      3  C3  BNZ d   1       0.306  -1.731  -0.100  0.00  0.00     0.000 A 
ATOM      4  C4  BNZ d   1      -0.099  -0.456   0.065  0.00  0.00     0.000 A 
ATOM      5  C5  BNZ d   1       0.615   0.583  -0.499  0.00  0.00     0.000 A 
ATOM      6  C6  BNZ d   1       1.743   0.318  -1.241  0.00  0.00     0.000 A 
ENDROOT
TORSDOF 0
ENDMDL
