MODEL 1
REMARK minimizedAffinity -4.36832142
REMARK minimizedRMSD -1
REMARK  0 active torsions:
REMARK  status: ('A' for Active; 'I' for Inactive)
ROOT
ATOM      1  C1  BNZ d   1       2.830   0.380  -0.929  0.00  0.00     0.000 A 
ATOM      2  C2  BNZ d   1       1.596   0.773  -0.485  0.00  0.00     0.000 A 
ATOM      3  C3  BNZ d   1       0.500  -0.024  -0.665  0.00  0.00     0.000 A 
ATOM      4  C4  BNZ d   1       0.633  -1.194  -1.324  0.00  0.00     0.000 A 
ATOM      5  C5  BNZ d   1       1.869  -1.600  -1.786  0.00  0.00     0.000 A 
ATOM      6  C6  BNZ d   1       2.976  -0.812  -1.568  0.00  0.00     0.000 A 
ENDROOT
TORSDOF 0
ENDMDL
