MODEL 1
REMARK minimizedAffinity 4.93020153
REMARK minimizedRMSD -1
REMARK  0 active torsions:
REMARK  status: ('A' for Active; 'I' for Inactive)
ROOT
ATOM      1  C1  BNZ d   1      -0.622  -2.023  -1.089  0.00  0.00     0.000 A 
ATOM      2  C2  BNZ d   1       0.232  -2.193  -2.146  0.00  0.00     0.000 A 
ATOM      3  C3  BNZ d   1       1.578  -2.316  -1.946  0.00  0.00     0.000 A 
ATOM      4  C4  BNZ d   1       2.073  -2.228  -0.695  0.00  0.00     0.000 A 
ATOM      5  C5  BNZ d   1       1.227  -2.047   0.381  0.00  0.00     0.000 A 
ATOM      6  C6  BNZ d   1      -0.132  -1.963   0.179  0.00  0.00     0.000 A 
ENDROOT
TORSDOF 0
ENDMDL
