MODEL 1
REMARK minimizedAffinity 1.72917461
REMARK minimizedRMSD -1
REMARK  0 active torsions:
REMARK  status: ('A' for Active; 'I' for Inactive)
ROOT
ATOM      1  C1  BNZ d   1      -4.160  -0.614   2.903  0.00  0.00     0.000 A 
ATOM      2  C2  BNZ d   1      -5.239  -1.208   2.305  0.00  0.00     0.000 A 
ATOM      3  C3  BNZ d   1      -5.995  -2.125   2.980  0.00  0.00     0.000 A 
ATOM      4  C4  BNZ d   1      -5.649  -2.476   4.235  0.00  0.00     0.000 A 
ATOM      5  C5  BNZ d   1      -4.558  -1.892   4.848  0.00  0.00     0.000 A 
ATOM      6  C6  BNZ d   1      -3.821  -0.941   4.180  0.00  0.00     0.000 A 
ENDROOT
TORSDOF 0
ENDMDL
