MODEL 1
REMARK minimizedAffinity -1.02294469
REMARK minimizedRMSD -1
REMARK  0 active torsions:
REMARK  status: ('A' for Active; 'I' for Inactive)
ROOT
ATOM      1  C1  BNZ d   1      -0.123  -1.792   0.446  0.00  0.00     0.000 A 
ATOM      2  C2  BNZ d   1       0.771  -2.632  -0.162  0.00  0.00     0.000 A 
ATOM      3  C3  BNZ d   1       1.682  -2.152  -1.062  0.00  0.00     0.000 A 
ATOM      4  C4  BNZ d   1       1.670  -0.842  -1.382  0.00  0.00     0.000 A 
ATOM      5  C5  BNZ d   1       0.769   0.016  -0.784  0.00  0.00     0.000 A 
ATOM      6  C6  BNZ d   1      -0.120  -0.464   0.150  0.00  0.00     0.000 A 
ENDROOT
TORSDOF 0
ENDMDL
