MODEL 1
REMARK minimizedAffinity -3.77476192
REMARK minimizedRMSD -1
REMARK  0 active torsions:
REMARK  status: ('A' for Active; 'I' for Inactive)
ROOT
ATOM      1  C1  BNZ d   1       0.188   0.074  -0.076  0.00  0.00     0.000 A 
ATOM      2  C2  BNZ d   1       1.389   0.181  -0.725  0.00  0.00     0.000 A 
ATOM      3  C3  BNZ d   1       2.153  -0.926  -0.969  0.00  0.00     0.000 A 
ATOM      4  C4  BNZ d   1       1.736  -2.130  -0.529  0.00  0.00     0.000 A 
ATOM      5  C5  BNZ d   1       0.532  -2.253   0.136  0.00  0.00     0.000 A 
ATOM      6  C6  BNZ d   1      -0.254  -1.142   0.345  0.00  0.00     0.000 A 
ENDROOT
TORSDOF 0
ENDMDL
