MODEL 1
REMARK minimizedAffinity -4.35407209
REMARK minimizedRMSD -1
REMARK  0 active torsions:
REMARK  status: ('A' for Active; 'I' for Inactive)
ROOT
ATOM      1  C1  BNZ d   1      -2.394   1.116   2.072  0.00  0.00     0.000 A 
ATOM      2  C2  BNZ d   1      -2.558  -0.188   1.688  0.00  0.00     0.000 A 
ATOM      3  C3  BNZ d   1      -2.614  -1.189   2.617  0.00  0.00     0.000 A 
ATOM      4  C4  BNZ d   1      -2.467  -0.890   3.924  0.00  0.00     0.000 A 
ATOM      5  C5  BNZ d   1      -2.292   0.419   4.326  0.00  0.00     0.000 A 
ATOM      6  C6  BNZ d   1      -2.274   1.428   3.391  0.00  0.00     0.000 A 
ENDROOT
TORSDOF 0
ENDMDL
