MODEL 1
REMARK minimizedAffinity -0.0703338012
REMARK minimizedRMSD -1
REMARK  0 active torsions:
REMARK  status: ('A' for Active; 'I' for Inactive)
ROOT
ATOM      1  C1  BNZ d   1      -3.383   1.763   3.851  0.00  0.00     0.000 A 
ATOM      2  C2  BNZ d   1      -4.094   0.597   3.747  0.00  0.00     0.000 A 
ATOM      3  C3  BNZ d   1      -3.520  -0.528   3.224  0.00  0.00     0.000 A 
ATOM      4  C4  BNZ d   1      -2.252  -0.475   2.769  0.00  0.00     0.000 A 
ATOM      5  C5  BNZ d   1      -1.525   0.695   2.858  0.00  0.00     0.000 A 
ATOM      6  C6  BNZ d   1      -2.093   1.815   3.421  0.00  0.00     0.000 A 
ENDROOT
TORSDOF 0
ENDMDL
