MODEL 1
REMARK minimizedAffinity -2.6675384
REMARK minimizedRMSD -1
REMARK  0 active torsions:
REMARK  status: ('A' for Active; 'I' for Inactive)
ROOT
ATOM      1  N1  IND d   1      -0.376   0.001  -1.062  0.00  0.00    -0.196 N 
ATOM      2  C2  IND d   1       0.750   0.751  -1.257  0.00  0.00     0.054 A 
ATOM      3  C3  IND d   1       1.328   1.049  -0.072  0.00  0.00    -0.031 A 
ATOM      4  C4  IND d   1       0.653   0.325   2.305  0.00  0.00     0.051 A 
ATOM      5  C5  IND d   1      -0.326  -0.335   2.992  0.00  0.00    -0.031 A 
ATOM      6  C6  IND d   1      -1.392  -0.932   2.351  0.00  0.00     0.015 A 
ATOM      7  C7  IND d   1      -1.513  -0.900   0.990  0.00  0.00    -0.016 A 
ATOM      8  C8  IND d   1      -0.524  -0.224   0.289  0.00  0.00    -0.047 A 
ATOM      9  C9  IND d   1       0.537   0.420   0.938  0.00  0.00    -0.096 A 
ATOM     10  HN1 IND d   1      -0.903  -0.282  -1.679  0.00  0.00     0.298 HD
ENDROOT
TORSDOF 0
ENDMDL
