MODEL 1
REMARK minimizedAffinity -5.44400454
REMARK minimizedRMSD -1
REMARK  0 active torsions:
REMARK  status: ('A' for Active; 'I' for Inactive)
ROOT
ATOM      1  N1  IND d   1      -0.526   0.343  -1.143  0.00  0.00    -0.196 N 
ATOM      2  C2  IND d   1       0.424   1.153  -1.700  0.00  0.00     0.054 A 
ATOM      3  C3  IND d   1       1.387   1.440  -0.795  0.00  0.00    -0.031 A 
ATOM      4  C4  IND d   1       1.657   0.605   1.625  0.00  0.00     0.051 A 
ATOM      5  C5  IND d   1       1.022  -0.125   2.591  0.00  0.00    -0.031 A 
ATOM      6  C6  IND d   1      -0.185  -0.751   2.355  0.00  0.00     0.015 A 
ATOM      7  C7  IND d   1      -0.798  -0.679   1.136  0.00  0.00    -0.016 A 
ATOM      8  C8  IND d   1      -0.160   0.067   0.156  0.00  0.00    -0.047 A 
ATOM      9  C9  IND d   1       1.044   0.740   0.402  0.00  0.00    -0.096 A 
ATOM     10  HN1 IND d   1      -1.233   0.055  -1.538  0.00  0.00     0.298 HD
ENDROOT
TORSDOF 0
ENDMDL
