MODEL 1
REMARK minimizedAffinity -4.78968525
REMARK minimizedRMSD -1
REMARK  0 active torsions:
REMARK  status: ('A' for Active; 'I' for Inactive)
ROOT
ATOM      1  N1  IND d   1       0.590   0.241   3.130  0.00  0.00    -0.196 N 
ATOM      2  C2  IND d   1      -0.630  -0.350   3.305  0.00  0.00     0.054 A 
ATOM      3  C3  IND d   1      -1.276  -0.454   2.122  0.00  0.00    -0.031 A 
ATOM      4  C4  IND d   1      -0.477   0.187  -0.240  0.00  0.00     0.051 A 
ATOM      5  C5  IND d   1       0.554   0.794  -0.900  0.00  0.00    -0.031 A 
ATOM      6  C6  IND d   1       1.673   1.255  -0.238  0.00  0.00     0.015 A 
ATOM      7  C7  IND d   1       1.809   1.115   1.114  0.00  0.00    -0.016 A 
ATOM      8  C8  IND d   1       0.761   0.505   1.789  0.00  0.00    -0.047 A 
ATOM      9  C9  IND d   1      -0.396   0.073   1.128  0.00  0.00    -0.096 A 
ATOM     10  HN1 IND d   1       1.156   0.418   3.753  0.00  0.00     0.298 HD
ENDROOT
TORSDOF 0
ENDMDL
