MODEL 1
REMARK minimizedAffinity -5.48498821
REMARK minimizedRMSD -1
REMARK  0 active torsions:
REMARK  status: ('A' for Active; 'I' for Inactive)
ROOT
ATOM      1  N1  IND d   1      -0.907   0.293  -0.377  0.00  0.00    -0.196 N 
ATOM      2  C2  IND d   1       0.309   0.843  -0.672  0.00  0.00     0.054 A 
ATOM      3  C3  IND d   1       1.059   0.955   0.448  0.00  0.00    -0.031 A 
ATOM      4  C4  IND d   1       0.528   0.205   2.853  0.00  0.00     0.051 A 
ATOM      5  C5  IND d   1      -0.474  -0.316   3.622  0.00  0.00    -0.031 A 
ATOM      6  C6  IND d   1      -1.695  -0.670   3.087  0.00  0.00     0.015 A 
ATOM      7  C7  IND d   1      -1.957  -0.527   1.754  0.00  0.00    -0.016 A 
ATOM      8  C8  IND d   1      -0.944   0.009   0.971  0.00  0.00    -0.047 A 
ATOM      9  C9  IND d   1       0.282   0.410   1.516  0.00  0.00    -0.096 A 
ATOM     10  HN1 IND d   1      -1.542   0.149  -0.938  0.00  0.00     0.298 HD
ENDROOT
TORSDOF 0
ENDMDL
