MODEL 1
REMARK minimizedAffinity -4.80605793
REMARK minimizedRMSD -1
REMARK  0 active torsions:
REMARK  status: ('A' for Active; 'I' for Inactive)
ROOT
ATOM      1  N1  IND d   1      -0.639   0.226  -0.933  0.00  0.00    -0.196 N 
ATOM      2  C2  IND d   1       0.658   0.612  -1.129  0.00  0.00     0.054 A 
ATOM      3  C3  IND d   1       1.292   0.751   0.057  0.00  0.00    -0.031 A 
ATOM      4  C4  IND d   1       0.426   0.298   2.438  0.00  0.00     0.051 A 
ATOM      5  C5  IND d   1      -0.706  -0.037   3.127  0.00  0.00    -0.031 A 
ATOM      6  C6  IND d   1      -1.897  -0.309   2.485  0.00  0.00     0.015 A 
ATOM      7  C7  IND d   1      -1.997  -0.267   1.123  0.00  0.00    -0.016 A 
ATOM      8  C8  IND d   1      -0.852   0.079   0.420  0.00  0.00    -0.047 A 
ATOM      9  C9  IND d   1       0.348   0.397   1.069  0.00  0.00    -0.096 A 
ATOM     10  HN1 IND d   1      -1.223   0.097  -1.550  0.00  0.00     0.298 HD
ENDROOT
TORSDOF 0
ENDMDL
