MODEL 1
REMARK minimizedAffinity -4.37683916
REMARK minimizedRMSD -1
REMARK  0 active torsions:
REMARK  status: ('A' for Active; 'I' for Inactive)
ROOT
ATOM      1  N1  IND d   1      -1.100   0.600  -0.909  0.00  0.00    -0.196 N 
ATOM      2  C2  IND d   1       0.043   1.160  -1.408  0.00  0.00     0.054 A 
ATOM      3  C3  IND d   1       0.977   1.268  -0.437  0.00  0.00    -0.031 A 
ATOM      4  C4  IND d   1       0.882   0.498   2.017  0.00  0.00     0.051 A 
ATOM      5  C5  IND d   1       0.034  -0.035   2.947  0.00  0.00    -0.031 A 
ATOM      6  C6  IND d   1      -1.261  -0.393   2.632  0.00  0.00     0.015 A 
ATOM      7  C7  IND d   1      -1.754  -0.242   1.367  0.00  0.00    -0.016 A 
ATOM      8  C8  IND d   1      -0.898   0.306   0.422  0.00  0.00    -0.047 A 
ATOM      9  C9  IND d   1       0.403   0.710   0.746  0.00  0.00    -0.096 A 
ATOM     10  HN1 IND d   1      -1.823   0.456  -1.351  0.00  0.00     0.298 HD
ENDROOT
TORSDOF 0
ENDMDL
