MODEL 1
REMARK minimizedAffinity -6.84559584
REMARK minimizedRMSD -1
REMARK  0 active torsions:
REMARK  status: ('A' for Active; 'I' for Inactive)
ROOT
ATOM      1  N1  IND d   1      -2.173   0.846  -0.477  0.00  0.00    -0.196 N 
ATOM      2  C2  IND d   1      -1.059   0.944  -1.265  0.00  0.00     0.054 A 
ATOM      3  C3  IND d   1       0.048   0.633  -0.554  0.00  0.00    -0.031 A 
ATOM      4  C4  IND d   1       0.256  -0.162   1.886  0.00  0.00     0.051 A 
ATOM      5  C5  IND d   1      -0.482  -0.370   3.018  0.00  0.00    -0.031 A 
ATOM      6  C6  IND d   1      -1.849  -0.182   3.042  0.00  0.00     0.015 A 
ATOM      7  C7  IND d   1      -2.533   0.212   1.927  0.00  0.00    -0.016 A 
ATOM      8  C8  IND d   1      -1.787   0.431   0.778  0.00  0.00    -0.047 A 
ATOM      9  C9  IND d   1      -0.394   0.283   0.759  0.00  0.00    -0.096 A 
ATOM     10  HN1 IND d   1      -2.978   1.016  -0.725  0.00  0.00     0.298 HD
ENDROOT
TORSDOF 0
ENDMDL
