MODEL 1
REMARK minimizedAffinity -1.17925751
REMARK minimizedRMSD -1
REMARK  0 active torsions:
REMARK  status: ('A' for Active; 'I' for Inactive)
ROOT
ATOM      1  N1  IND d   1       0.461   0.780  -0.200  0.00  0.00    -0.196 N 
ATOM      2  C2  IND d   1      -0.370   0.437  -1.230  0.00  0.00     0.054 A 
ATOM      3  C3  IND d   1      -1.351  -0.381  -0.789  0.00  0.00    -0.031 A 
ATOM      4  C4  IND d   1      -1.845  -1.205   1.599  0.00  0.00     0.051 A 
ATOM      5  C5  IND d   1      -1.343  -1.187   2.870  0.00  0.00    -0.031 A 
ATOM      6  C6  IND d   1      -0.192  -0.496   3.190  0.00  0.00     0.015 A 
ATOM      7  C7  IND d   1       0.497   0.215   2.248  0.00  0.00    -0.016 A 
ATOM      8  C8  IND d   1      -0.006   0.193   0.955  0.00  0.00    -0.047 A 
ATOM      9  C9  IND d   1      -1.151  -0.541   0.616  0.00  0.00    -0.096 A 
ATOM     10  HN1 IND d   1       1.159   1.279  -0.263  0.00  0.00     0.298 HD
ENDROOT
TORSDOF 0
ENDMDL
