MODEL 1
REMARK minimizedAffinity -5.74885607
REMARK minimizedRMSD -1
REMARK  0 active torsions:
REMARK  status: ('A' for Active; 'I' for Inactive)
ROOT
ATOM      1  N1  IND d   1      -2.180   0.537  -0.461  0.00  0.00    -0.196 N 
ATOM      2  C2  IND d   1      -1.355   0.910  -1.485  0.00  0.00     0.054 A 
ATOM      3  C3  IND d   1      -0.070   0.939  -1.067  0.00  0.00    -0.031 A 
ATOM      4  C4  IND d   1       0.919   0.316   1.226  0.00  0.00     0.051 A 
ATOM      5  C5  IND d   1       0.556  -0.049   2.493  0.00  0.00    -0.031 A 
ATOM      6  C6  IND d   1      -0.764  -0.243   2.846  0.00  0.00     0.015 A 
ATOM      7  C7  IND d   1      -1.774  -0.090   1.938  0.00  0.00    -0.016 A 
ATOM      8  C8  IND d   1      -1.409   0.286   0.653  0.00  0.00    -0.047 A 
ATOM      9  C9  IND d   1      -0.075   0.526   0.300  0.00  0.00    -0.096 A 
ATOM     10  HN1 IND d   1      -3.036   0.471  -0.505  0.00  0.00     0.298 HD
ENDROOT
TORSDOF 0
ENDMDL
