MODEL 1
REMARK minimizedAffinity -4.51683855
REMARK minimizedRMSD -1
REMARK  0 active torsions:
REMARK  status: ('A' for Active; 'I' for Inactive)
ROOT
ATOM      1  N1  IND d   1       1.088   0.224   1.848  0.00  0.00    -0.196 N 
ATOM      2  C2  IND d   1       0.359  -0.021   2.978  0.00  0.00     0.054 A 
ATOM      3  C3  IND d   1      -0.964   0.039   2.707  0.00  0.00    -0.031 A 
ATOM      4  C4  IND d   1      -2.156   0.425   0.458  0.00  0.00     0.051 A 
ATOM      5  C5  IND d   1      -1.913   0.733  -0.851  0.00  0.00    -0.031 A 
ATOM      6  C6  IND d   1      -0.631   0.887  -1.338  0.00  0.00     0.015 A 
ATOM      7  C7  IND d   1       0.461   0.727  -0.532  0.00  0.00    -0.016 A 
ATOM      8  C8  IND d   1       0.218   0.422   0.799  0.00  0.00    -0.047 A 
ATOM      9  C9  IND d   1      -1.082   0.306   1.309  0.00  0.00    -0.096 A 
ATOM     10  HN1 IND d   1       1.947   0.251   1.801  0.00  0.00     0.298 HD
ENDROOT
TORSDOF 0
ENDMDL
