MODEL 1
REMARK minimizedAffinity -4.17976952
REMARK minimizedRMSD -1
REMARK  0 active torsions:
REMARK  status: ('A' for Active; 'I' for Inactive)
ROOT
ATOM      1  N1  IND d   1      -0.092   0.427  -0.603  0.00  0.00    -0.196 N 
ATOM      2  C2  IND d   1       1.049   1.175  -0.523  0.00  0.00     0.054 A 
ATOM      3  C3  IND d   1       1.418   1.334   0.768  0.00  0.00    -0.031 A 
ATOM      4  C4  IND d   1       0.352   0.370   2.904  0.00  0.00     0.051 A 
ATOM      5  C5  IND d   1      -0.728  -0.345   3.341  0.00  0.00    -0.031 A 
ATOM      6  C6  IND d   1      -1.669  -0.851   2.468  0.00  0.00     0.015 A 
ATOM      7  C7  IND d   1      -1.558  -0.670   1.118  0.00  0.00    -0.016 A 
ATOM      8  C8  IND d   1      -0.466   0.061   0.672  0.00  0.00    -0.047 A 
ATOM      9  C9  IND d   1       0.469   0.613   1.556  0.00  0.00    -0.096 A 
ATOM     10  HN1 IND d   1      -0.507   0.221  -1.327  0.00  0.00     0.298 HD
ENDROOT
TORSDOF 0
ENDMDL
