MODEL 1
REMARK minimizedAffinity -5.76955223
REMARK minimizedRMSD -1
REMARK  0 active torsions:
REMARK  status: ('A' for Active; 'I' for Inactive)
ROOT
ATOM      1  N1  IND d   1       0.815   0.442   0.477  0.00  0.00    -0.196 N 
ATOM      2  C2  IND d   1       1.645   0.514   1.561  0.00  0.00     0.054 A 
ATOM      3  C3  IND d   1       0.940   0.366   2.705  0.00  0.00    -0.031 A 
ATOM      4  C4  IND d   1      -1.570  -0.108   3.029  0.00  0.00     0.051 A 
ATOM      5  C5  IND d   1      -2.742  -0.223   2.337  0.00  0.00    -0.031 A 
ATOM      6  C6  IND d   1      -2.790  -0.123   0.962  0.00  0.00     0.015 A 
ATOM      7  C7  IND d   1      -1.660   0.086   0.223  0.00  0.00    -0.016 A 
ATOM      8  C8  IND d   1      -0.468   0.210   0.923  0.00  0.00    -0.047 A 
ATOM      9  C9  IND d   1      -0.420   0.152   2.322  0.00  0.00    -0.096 A 
ATOM     10  HN1 IND d   1       1.053   0.527  -0.344  0.00  0.00     0.298 HD
ENDROOT
TORSDOF 0
ENDMDL
