MODEL 1
REMARK minimizedAffinity -5.92770767
REMARK minimizedRMSD -1
REMARK  0 active torsions:
REMARK  status: ('A' for Active; 'I' for Inactive)
ROOT
ATOM      1  N1  IND d   1      -0.033   0.801  -0.497  0.00  0.00    -0.196 N 
ATOM      2  C2  IND d   1      -1.271   0.888  -1.068  0.00  0.00     0.054 A 
ATOM      3  C3  IND d   1      -2.211   0.396  -0.231  0.00  0.00    -0.031 A 
ATOM      4  C4  IND d   1      -1.954  -0.510   2.165  0.00  0.00     0.051 A 
ATOM      5  C5  IND d   1      -1.010  -0.822   3.103  0.00  0.00    -0.031 A 
ATOM      6  C6  IND d   1       0.335  -0.602   2.885  0.00  0.00     0.015 A 
ATOM      7  C7  IND d   1       0.787  -0.049   1.721  0.00  0.00    -0.016 A 
ATOM      8  C8  IND d   1      -0.168   0.262   0.763  0.00  0.00    -0.047 A 
ATOM      9  C9  IND d   1      -1.530   0.002   0.962  0.00  0.00    -0.096 A 
ATOM     10  HN1 IND d   1       0.707   1.041  -0.864  0.00  0.00     0.298 HD
ENDROOT
TORSDOF 0
ENDMDL
