MODEL 1
REMARK minimizedAffinity 3.67009807
REMARK minimizedRMSD -1
REMARK  0 active torsions:
REMARK  status: ('A' for Active; 'I' for Inactive)
ROOT
ATOM      1  N1  IND d   1      -0.659  -0.268  -0.422  0.00  0.00    -0.196 N 
ATOM      2  C2  IND d   1      -0.226   0.367  -1.552  0.00  0.00     0.054 A 
ATOM      3  C3  IND d   1       0.808   1.189  -1.263  0.00  0.00    -0.031 A 
ATOM      4  C4  IND d   1       2.017   1.572   0.977  0.00  0.00     0.051 A 
ATOM      5  C5  IND d   1       1.959   1.243   2.302  0.00  0.00    -0.031 A 
ATOM      6  C6  IND d   1       1.007   0.375   2.797  0.00  0.00     0.015 A 
ATOM      7  C7  IND d   1       0.082  -0.209   1.979  0.00  0.00    -0.016 A 
ATOM      8  C8  IND d   1       0.134   0.128   0.634  0.00  0.00    -0.047 A 
ATOM      9  C9  IND d   1       1.070   1.041   0.133  0.00  0.00    -0.096 A 
ATOM     10  HN1 IND d   1      -1.316  -0.821  -0.377  0.00  0.00     0.298 HD
ENDROOT
TORSDOF 0
ENDMDL
