MODEL 1
REMARK minimizedAffinity -4.65635967
REMARK minimizedRMSD -1
REMARK  0 active torsions:
REMARK  status: ('A' for Active; 'I' for Inactive)
ROOT
ATOM      1  N1  IND d   1       0.624   0.878  -0.184  0.00  0.00    -0.196 N 
ATOM      2  C2  IND d   1      -0.309   0.815  -1.181  0.00  0.00     0.054 A 
ATOM      3  C3  IND d   1      -1.448   0.249  -0.724  0.00  0.00    -0.031 A 
ATOM      4  C4  IND d   1      -2.037  -0.556   1.649  0.00  0.00     0.051 A 
ATOM      5  C5  IND d   1      -1.495  -0.738   2.890  0.00  0.00    -0.031 A 
ATOM      6  C6  IND d   1      -0.193  -0.381   3.177  0.00  0.00     0.015 A 
ATOM      7  C7  IND d   1       0.615   0.184   2.231  0.00  0.00    -0.016 A 
ATOM      8  C8  IND d   1       0.070   0.364   0.968  0.00  0.00    -0.047 A 
ATOM      9  C9  IND d   1      -1.237  -0.035   0.660  0.00  0.00    -0.096 A 
ATOM     10  HN1 IND d   1       1.423   1.186  -0.263  0.00  0.00     0.298 HD
ENDROOT
TORSDOF 0
ENDMDL
