MODEL 1
REMARK minimizedAffinity -5.84399605
REMARK minimizedRMSD -1
REMARK  0 active torsions:
REMARK  status: ('A' for Active; 'I' for Inactive)
ROOT
ATOM      1  N1  IND d   1       0.472   1.091  -0.290  0.00  0.00    -0.196 N 
ATOM      2  C2  IND d   1      -0.609   1.249  -1.112  0.00  0.00     0.054 A 
ATOM      3  C3  IND d   1      -1.696   0.647  -0.580  0.00  0.00    -0.031 A 
ATOM      4  C4  IND d   1      -1.954  -0.568   1.675  0.00  0.00     0.051 A 
ATOM      5  C5  IND d   1      -1.236  -0.998   2.755  0.00  0.00    -0.031 A 
ATOM      6  C6  IND d   1       0.115  -0.746   2.879  0.00  0.00     0.015 A 
ATOM      7  C7  IND d   1       0.799  -0.042   1.929  0.00  0.00    -0.016 A 
ATOM      8  C8  IND d   1       0.074   0.390   0.827  0.00  0.00    -0.047 A 
ATOM      9  C9  IND d   1      -1.288   0.101   0.675  0.00  0.00    -0.096 A 
ATOM     10  HN1 IND d   1       1.266   1.381  -0.445  0.00  0.00     0.298 HD
ENDROOT
TORSDOF 0
ENDMDL
