MODEL 1
REMARK minimizedAffinity -3.74337435
REMARK minimizedRMSD -1
REMARK  0 active torsions:
REMARK  status: ('A' for Active; 'I' for Inactive)
ROOT
ATOM      1  N1  IND d   1       1.118   0.557   1.487  0.00  0.00    -0.196 N 
ATOM      2  C2  IND d   1       0.623   0.352   2.745  0.00  0.00     0.054 A 
ATOM      3  C3  IND d   1      -0.727   0.287   2.714  0.00  0.00    -0.031 A 
ATOM      4  C4  IND d   1      -2.324   0.390   0.697  0.00  0.00     0.051 A 
ATOM      5  C5  IND d   1      -2.342   0.605  -0.653  0.00  0.00    -0.031 A 
ATOM      6  C6  IND d   1      -1.184   0.816  -1.373  0.00  0.00     0.015 A 
ATOM      7  C7  IND d   1       0.041   0.809  -0.770  0.00  0.00    -0.016 A 
ATOM      8  C8  IND d   1       0.063   0.598   0.602  0.00  0.00    -0.047 A 
ATOM      9  C9  IND d   1      -1.112   0.426   1.345  0.00  0.00    -0.096 A 
ATOM     10  HN1 IND d   1       1.948   0.645   1.283  0.00  0.00     0.298 HD
ENDROOT
TORSDOF 0
ENDMDL
