MODEL 1
REMARK minimizedAffinity 0.366056144
REMARK minimizedRMSD -1
REMARK  0 active torsions:
REMARK  status: ('A' for Active; 'I' for Inactive)
ROOT
ATOM      1  C2' OXE d   1      -2.378   0.939   0.528  0.00  0.00     0.078 C 
ATOM      2  C1' OXE d   1      -1.822  -1.796   0.826  0.00  0.00     0.078 C 
ATOM      3  C1  OXE d   1      -2.295  -1.317  -0.524  0.00  0.00    -0.078 A 
ATOM      4  C2  OXE d   1      -2.610   0.015  -0.648  0.00  0.00    -0.078 A 
ATOM      5  C3  OXE d   1      -2.998   0.519  -1.885  0.00  0.00     0.003 A 
ATOM      6  C4  OXE d   1      -3.219  -0.345  -2.965  0.00  0.00    -0.002 A 
ATOM      7  C5  OXE d   1      -2.943  -1.711  -2.849  0.00  0.00    -0.002 A 
ATOM      8  C6  OXE d   1      -2.441  -2.205  -1.651  0.00  0.00     0.003 A 
ENDROOT
TORSDOF 0
ENDMDL
