MODEL 1
REMARK minimizedAffinity 7.69609356
REMARK minimizedRMSD -1
REMARK  0 active torsions:
REMARK  status: ('A' for Active; 'I' for Inactive)
ROOT
ATOM      1  C2' OXE d   1       1.371   0.407   2.261  0.00  0.00     0.078 C 
ATOM      2  C1' OXE d   1       3.136  -1.707   1.716  0.00  0.00     0.078 C 
ATOM      3  C1  OXE d   1       2.439  -1.700   3.053  0.00  0.00    -0.078 A 
ATOM      4  C2  OXE d   1       1.613  -0.637   3.330  0.00  0.00    -0.078 A 
ATOM      5  C3  OXE d   1       0.903  -0.609   4.527  0.00  0.00     0.003 A 
ATOM      6  C4  OXE d   1       1.140  -1.573   5.514  0.00  0.00    -0.002 A 
ATOM      7  C5  OXE d   1       2.007  -2.643   5.268  0.00  0.00    -0.002 A 
ATOM      8  C6  OXE d   1       2.631  -2.744   4.030  0.00  0.00     0.003 A 
ENDROOT
TORSDOF 0
ENDMDL
