MODEL 1
REMARK minimizedAffinity -3.03799534
REMARK minimizedRMSD -1
REMARK  0 active torsions:
REMARK  status: ('A' for Active; 'I' for Inactive)
ROOT
ATOM      1  C2' OXE d   1      -3.001  -1.799  -3.842  0.00  0.00     0.078 C 
ATOM      2  C1' OXE d   1      -3.245  -0.256  -1.509  0.00  0.00     0.078 C 
ATOM      3  C1  OXE d   1      -2.957  -1.728  -1.352  0.00  0.00    -0.078 A 
ATOM      4  C2  OXE d   1      -2.886  -2.484  -2.498  0.00  0.00    -0.078 A 
ATOM      5  C3  OXE d   1      -2.568  -3.837  -2.412  0.00  0.00     0.003 A 
ATOM      6  C4  OXE d   1      -2.473  -4.465  -1.165  0.00  0.00    -0.002 A 
ATOM      7  C5  OXE d   1      -2.582  -3.721   0.015  0.00  0.00    -0.002 A 
ATOM      8  C6  OXE d   1      -2.781  -2.347  -0.062  0.00  0.00     0.003 A 
ENDROOT
TORSDOF 0
ENDMDL
