MODEL 1
REMARK minimizedAffinity 8.77302647
REMARK minimizedRMSD -1
REMARK  0 active torsions:
REMARK  status: ('A' for Active; 'I' for Inactive)
ROOT
ATOM      1  C2' OXE d   1       1.279  -2.285   5.685  0.00  0.00     0.078 C 
ATOM      2  C1' OXE d   1       2.253  -3.713   3.473  0.00  0.00     0.078 C 
ATOM      3  C1  OXE d   1       1.699  -2.331   3.230  0.00  0.00    -0.078 A 
ATOM      4  C2  OXE d   1       1.182  -1.658   4.311  0.00  0.00    -0.078 A 
ATOM      5  C3  OXE d   1       0.709  -0.359   4.152  0.00  0.00     0.003 A 
ATOM      6  C4  OXE d   1       0.614   0.210   2.876  0.00  0.00    -0.002 A 
ATOM      7  C5  OXE d   1       1.098  -0.474   1.756  0.00  0.00    -0.002 A 
ATOM      8  C6  OXE d   1       1.681  -1.725   1.921  0.00  0.00     0.003 A 
ENDROOT
TORSDOF 0
ENDMDL
