MODEL 1
REMARK minimizedAffinity 6.49779224
REMARK minimizedRMSD -1
REMARK  0 active torsions:
REMARK  status: ('A' for Active; 'I' for Inactive)
ROOT
ATOM      1  C2' OXE d   1       1.124  -0.152   4.026  0.00  0.00     0.078 C 
ATOM      2  C1' OXE d   1       2.470  -2.188   2.640  0.00  0.00     0.078 C 
ATOM      3  C1  OXE d   1       1.668  -1.198   1.832  0.00  0.00    -0.078 A 
ATOM      4  C2  OXE d   1       0.975  -0.233   2.522  0.00  0.00    -0.078 A 
ATOM      5  C3  OXE d   1       0.264   0.738   1.823  0.00  0.00     0.003 A 
ATOM      6  C4  OXE d   1       0.124   0.650   0.433  0.00  0.00    -0.002 A 
ATOM      7  C5  OXE d   1       0.789  -0.349  -0.286  0.00  0.00    -0.002 A 
ATOM      8  C6  OXE d   1       1.598  -1.253   0.393  0.00  0.00     0.003 A 
ENDROOT
TORSDOF 0
ENDMDL
