MODEL 1
REMARK minimizedAffinity 3.85802579
REMARK minimizedRMSD -1
REMARK  0 active torsions:
REMARK  status: ('A' for Active; 'I' for Inactive)
ROOT
ATOM      1  C2' OXE d   1      -1.082  -3.722   0.719  0.00  0.00     0.078 C 
ATOM      2  C1' OXE d   1       1.555  -2.969   1.322  0.00  0.00     0.078 C 
ATOM      3  C1  OXE d   1       0.499  -1.892   1.319  0.00  0.00    -0.078 A 
ATOM      4  C2  OXE d   1      -0.780  -2.261   0.977  0.00  0.00    -0.078 A 
ATOM      5  C3  OXE d   1      -1.802  -1.317   1.012  0.00  0.00     0.003 A 
ATOM      6  C4  OXE d   1      -1.513   0.033   1.242  0.00  0.00    -0.002 A 
ATOM      7  C5  OXE d   1      -0.210   0.437   1.553  0.00  0.00    -0.002 A 
ATOM      8  C6  OXE d   1       0.798  -0.518   1.637  0.00  0.00     0.003 A 
ENDROOT
TORSDOF 0
ENDMDL
