MODEL 1
REMARK minimizedAffinity 6.62769747
REMARK minimizedRMSD -1
REMARK  0 active torsions:
REMARK  status: ('A' for Active; 'I' for Inactive)
ROOT
ATOM      1  C2' OXE d   1      -3.769   1.206  -2.863  0.00  0.00     0.078 C 
ATOM      2  C1' OXE d   1      -4.610   3.337  -1.240  0.00  0.00     0.078 C 
ATOM      3  C1  OXE d   1      -4.266   3.640  -2.678  0.00  0.00    -0.078 A 
ATOM      4  C2  OXE d   1      -3.811   2.599  -3.451  0.00  0.00    -0.078 A 
ATOM      5  C3  OXE d   1      -3.533   2.813  -4.798  0.00  0.00     0.003 A 
ATOM      6  C4  OXE d   1      -3.564   4.106  -5.333  0.00  0.00    -0.002 A 
ATOM      7  C5  OXE d   1      -3.987   5.187  -4.551  0.00  0.00    -0.002 A 
ATOM      8  C6  OXE d   1      -4.381   4.964  -3.236  0.00  0.00     0.003 A 
ENDROOT
TORSDOF 0
ENDMDL
