MODEL 1
REMARK minimizedAffinity 3.02945995
REMARK minimizedRMSD -1
REMARK  0 active torsions:
REMARK  status: ('A' for Active; 'I' for Inactive)
ROOT
ATOM      1  C2' OXE d   1       1.474  -2.121   5.942  0.00  0.00     0.078 C 
ATOM      2  C1' OXE d   1       1.078   0.653   5.765  0.00  0.00     0.078 C 
ATOM      3  C1  OXE d   1       1.336  -0.104   4.486  0.00  0.00    -0.078 A 
ATOM      4  C2  OXE d   1       1.575  -1.454   4.588  0.00  0.00    -0.078 A 
ATOM      5  C3  OXE d   1       1.765  -2.209   3.434  0.00  0.00     0.003 A 
ATOM      6  C4  OXE d   1       1.867  -1.583   2.186  0.00  0.00    -0.002 A 
ATOM      7  C5  OXE d   1       1.666  -0.204   2.065  0.00  0.00    -0.002 A 
ATOM      8  C6  OXE d   1       1.359   0.542   3.197  0.00  0.00     0.003 A 
ENDROOT
TORSDOF 0
ENDMDL
