MODEL 1
REMARK minimizedAffinity 14.014164
REMARK minimizedRMSD -1
REMARK  0 active torsions:
REMARK  status: ('A' for Active; 'I' for Inactive)
ROOT
ATOM      1  C2' OXE d   1       1.083   1.003   4.626  0.00  0.00     0.078 C 
ATOM      2  C1' OXE d   1       1.218  -1.693   5.396  0.00  0.00     0.078 C 
ATOM      3  C1  OXE d   1       1.351  -1.373   3.928  0.00  0.00    -0.078 A 
ATOM      4  C2  OXE d   1       1.237  -0.056   3.556  0.00  0.00    -0.078 A 
ATOM      5  C3  OXE d   1       1.405   0.300   2.221  0.00  0.00     0.003 A 
ATOM      6  C4  OXE d   1       1.537  -0.686   1.235  0.00  0.00    -0.002 A 
ATOM      7  C5  OXE d   1       1.615  -2.037   1.589  0.00  0.00    -0.002 A 
ATOM      8  C6  OXE d   1       1.567  -2.394   2.933  0.00  0.00     0.003 A 
ENDROOT
TORSDOF 0
ENDMDL
