MODEL 1
REMARK minimizedAffinity -5.93615103
REMARK minimizedRMSD -1
REMARK  1 active torsions:
REMARK  status: ('A' for Active; 'I' for Inactive)
REMARK    1  A    between atoms: C1_2  and  C2_3 
ROOT
ATOM      1  C2  UNL d   1      -0.049   1.282  -0.038  0.00  0.00    -0.081 A 
ATOM      2  C3  UNL d   1       1.299   1.036  -0.329  0.00  0.00     0.006 A 
ATOM      3  C4  UNL d   1       1.923  -0.123   0.136  0.00  0.00     0.002 A 
ATOM      4  C5  UNL d   1       1.210  -1.060   0.892  0.00  0.00    -0.080 A 
ATOM      5  C6  UNL d   1       1.860  -2.323   1.372  0.00  0.00     0.076 C 
ATOM      6  C7  UNL d   1      -0.131  -0.806   1.198  0.00  0.00     0.002 A 
ATOM      7  C8  UNL d   1      -0.756   0.354   0.734  0.00  0.00     0.006 A 
ENDROOT
BRANCH   1   8
ATOM      8  C1  UNL d   1      -0.743   2.500  -0.592  0.00  0.00     0.054 C 
ATOM      9  C   UNL d   1      -0.015   3.044  -1.813  0.00  0.00     0.018 C 
ENDBRANCH   1   8
TORSDOF 1
ENDMDL
