MODEL 1
REMARK minimizedAffinity -5.05761862
REMARK minimizedRMSD -1
REMARK  1 active torsions:
REMARK  status: ('A' for Active; 'I' for Inactive)
REMARK    1  A    between atoms: C1_2  and  C2_3 
ROOT
ATOM      1  C2  UNL d   1       0.345   1.143  -0.352  0.00  0.00    -0.081 A 
ATOM      2  C3  UNL d   1       1.731   0.940  -0.380  0.00  0.00     0.006 A 
ATOM      3  C4  UNL d   1       2.295  -0.178   0.239  0.00  0.00     0.002 A 
ATOM      4  C5  UNL d   1       1.484  -1.115   0.888  0.00  0.00    -0.080 A 
ATOM      5  C6  UNL d   1       2.074  -2.335   1.530  0.00  0.00     0.076 C 
ATOM      6  C7  UNL d   1       0.101  -0.903   0.930  0.00  0.00     0.002 A 
ATOM      7  C8  UNL d   1      -0.463   0.215   0.313  0.00  0.00     0.006 A 
ENDROOT
BRANCH   1   8
ATOM      8  C1  UNL d   1      -0.272   2.314  -1.074  0.00  0.00     0.054 C 
ATOM      9  C   UNL d   1      -1.664   1.975  -1.589  0.00  0.00     0.018 C 
ENDBRANCH   1   8
TORSDOF 1
ENDMDL
