MODEL 1
REMARK minimizedAffinity -6.26961756
REMARK minimizedRMSD -1
REMARK  1 active torsions:
REMARK  status: ('A' for Active; 'I' for Inactive)
REMARK    1  A    between atoms: C1_2  and  C2_3 
ROOT
ATOM      1  C2  UNL d   1       0.653  -0.743   0.901  0.00  0.00    -0.081 A 
ATOM      2  C3  UNL d   1       1.843  -1.279   1.407  0.00  0.00     0.006 A 
ATOM      3  C4  UNL d   1       3.058  -1.045   0.758  0.00  0.00     0.002 A 
ATOM      4  C5  UNL d   1       3.104  -0.264  -0.402  0.00  0.00    -0.080 A 
ATOM      5  C6  UNL d   1       4.406   0.020  -1.091  0.00  0.00     0.076 C 
ATOM      6  C7  UNL d   1       1.913   0.257  -0.917  0.00  0.00     0.002 A 
ATOM      7  C8  UNL d   1       0.698   0.023  -0.270  0.00  0.00     0.006 A 
ENDROOT
BRANCH   1   8
ATOM      8  C1  UNL d   1      -0.649  -0.939   1.634  0.00  0.00     0.054 C 
ATOM      9  C   UNL d   1      -1.413   0.370   1.767  0.00  0.00     0.018 C 
ENDBRANCH   1   8
TORSDOF 1
ENDMDL
