MODEL 1
REMARK minimizedAffinity -4.91470718
REMARK minimizedRMSD -1
REMARK  1 active torsions:
REMARK  status: ('A' for Active; 'I' for Inactive)
REMARK    1  A    between atoms: C1_2  and  C2_3 
ROOT
ATOM      1  C2  UNL d   1       0.394  -0.326   0.871  0.00  0.00    -0.081 A 
ATOM      2  C3  UNL d   1       1.149  -1.505   0.883  0.00  0.00     0.006 A 
ATOM      3  C4  UNL d   1       2.432  -1.531   0.331  0.00  0.00     0.002 A 
ATOM      4  C5  UNL d   1       2.984  -0.377  -0.236  0.00  0.00    -0.080 A 
ATOM      5  C6  UNL d   1       4.372  -0.383  -0.805  0.00  0.00     0.076 C 
ATOM      6  C7  UNL d   1       2.223   0.797  -0.264  0.00  0.00     0.002 A 
ATOM      7  C8  UNL d   1       0.941   0.823   0.288  0.00  0.00     0.006 A 
ENDROOT
BRANCH   1   8
ATOM      8  C1  UNL d   1      -0.964  -0.278   1.523  0.00  0.00     0.054 C 
ATOM      9  C   UNL d   1      -1.503   1.145   1.575  0.00  0.00     0.018 C 
ENDBRANCH   1   8
TORSDOF 1
ENDMDL
