MODEL 1
REMARK minimizedAffinity -2.48289204
REMARK minimizedRMSD -1
REMARK  1 active torsions:
REMARK  status: ('A' for Active; 'I' for Inactive)
REMARK    1  A    between atoms: C1_2  and  C2_3 
ROOT
ATOM      1  C2  UNL d   1      -0.373   0.858  -0.384  0.00  0.00    -0.081 A 
ATOM      2  C3  UNL d   1       0.987   0.595  -0.588  0.00  0.00     0.006 A 
ATOM      3  C4  UNL d   1       1.582  -0.537  -0.023  0.00  0.00     0.002 A 
ATOM      4  C5  UNL d   1       0.825  -1.426   0.747  0.00  0.00    -0.080 A 
ATOM      5  C6  UNL d   1       1.444  -2.660   1.333  0.00  0.00     0.076 C 
ATOM      6  C7  UNL d   1      -0.530  -1.153   0.965  0.00  0.00     0.002 A 
ATOM      7  C8  UNL d   1      -1.124  -0.022   0.401  0.00  0.00     0.006 A 
ENDROOT
BRANCH   1   8
ATOM      8  C1  UNL d   1      -1.031   2.043  -1.045  0.00  0.00     0.054 C 
ATOM      9  C   UNL d   1      -1.717   1.641  -2.343  0.00  0.00     0.018 C 
ENDBRANCH   1   8
TORSDOF 1
ENDMDL
