MODEL 1
REMARK minimizedAffinity -4.52536345
REMARK minimizedRMSD -1
REMARK  1 active torsions:
REMARK  status: ('A' for Active; 'I' for Inactive)
REMARK    1  A    between atoms: C1_2  and  C2_3 
ROOT
ATOM      1  C2  UNL d   1      -0.355   0.781  -0.675  0.00  0.00    -0.081 A 
ATOM      2  C3  UNL d   1       0.928   0.426  -1.107  0.00  0.00     0.006 A 
ATOM      3  C4  UNL d   1       1.663  -0.546  -0.423  0.00  0.00     0.002 A 
ATOM      4  C5  UNL d   1       1.123  -1.184   0.699  0.00  0.00    -0.080 A 
ATOM      5  C6  UNL d   1       1.889  -2.250   1.425  0.00  0.00     0.076 C 
ATOM      6  C7  UNL d   1      -0.152  -0.817   1.142  0.00  0.00     0.002 A 
ATOM      7  C8  UNL d   1      -0.887   0.155   0.459  0.00  0.00     0.006 A 
ENDROOT
BRANCH   1   8
ATOM      8  C1  UNL d   1      -1.175   1.781  -1.448  0.00  0.00     0.054 C 
ATOM      9  C   UNL d   1      -2.325   1.105  -2.182  0.00  0.00     0.018 C 
ENDBRANCH   1   8
TORSDOF 1
ENDMDL
