MODEL 1
REMARK minimizedAffinity -4.49914837
REMARK minimizedRMSD -1
REMARK  1 active torsions:
REMARK  status: ('A' for Active; 'I' for Inactive)
REMARK    1  A    between atoms: C1_2  and  C2_3 
ROOT
ATOM      1  C2  UNL d   1      -0.235   1.584  -1.183  0.00  0.00    -0.081 A 
ATOM      2  C3  UNL d   1       1.144   1.422  -1.366  0.00  0.00     0.006 A 
ATOM      3  C4  UNL d   1       1.816   0.351  -0.773  0.00  0.00     0.002 A 
ATOM      4  C5  UNL d   1       1.121  -0.579   0.008  0.00  0.00    -0.080 A 
ATOM      5  C6  UNL d   1       1.826  -1.750   0.626  0.00  0.00     0.076 C 
ATOM      6  C7  UNL d   1      -0.253  -0.408   0.205  0.00  0.00     0.002 A 
ATOM      7  C8  UNL d   1      -0.926   0.663  -0.388  0.00  0.00     0.006 A 
ENDROOT
BRANCH   1   8
ATOM      8  C1  UNL d   1      -0.975   2.700  -1.875  0.00  0.00     0.054 C 
ATOM      9  C   UNL d   1      -2.333   2.235  -2.380  0.00  0.00     0.018 C 
ENDBRANCH   1   8
TORSDOF 1
ENDMDL
