MODEL 1
REMARK minimizedAffinity -4.31188488
REMARK minimizedRMSD -1
REMARK  1 active torsions:
REMARK  status: ('A' for Active; 'I' for Inactive)
REMARK    1  A    between atoms: C1_2  and  C2_3 
ROOT
ATOM      1  C2  UNL d   1       0.236   0.806  -0.518  0.00  0.00    -0.081 A 
ATOM      2  C3  UNL d   1       1.597   0.481  -0.477  0.00  0.00     0.006 A 
ATOM      3  C4  UNL d   1       2.008  -0.797  -0.088  0.00  0.00     0.002 A 
ATOM      4  C5  UNL d   1       1.066  -1.771   0.258  0.00  0.00    -0.080 A 
ATOM      5  C6  UNL d   1       1.493  -3.155   0.647  0.00  0.00     0.076 C 
ATOM      6  C7  UNL d   1      -0.293  -1.441   0.233  0.00  0.00     0.002 A 
ATOM      7  C8  UNL d   1      -0.705  -0.164  -0.154  0.00  0.00     0.006 A 
ENDROOT
BRANCH   1   8
ATOM      8  C1  UNL d   1      -0.214   2.162  -0.999  0.00  0.00     0.054 C 
ATOM      9  C   UNL d   1      -0.523   2.146  -2.489  0.00  0.00     0.018 C 
ENDBRANCH   1   8
TORSDOF 1
ENDMDL
