MODEL 1
REMARK minimizedAffinity -2.95109558
REMARK minimizedRMSD -1
REMARK  1 active torsions:
REMARK  status: ('A' for Active; 'I' for Inactive)
REMARK    1  A    between atoms: C1_2  and  C2_3 
ROOT
ATOM      1  C2  UNL d   1      -0.059   0.497  -0.757  0.00  0.00    -0.081 A 
ATOM      2  C3  UNL d   1       1.329   0.323  -0.701  0.00  0.00     0.006 A 
ATOM      3  C4  UNL d   1       1.878  -0.790  -0.059  0.00  0.00     0.002 A 
ATOM      4  C5  UNL d   1       1.049  -1.751   0.529  0.00  0.00    -0.080 A 
ATOM      5  C6  UNL d   1       1.624  -2.966   1.194  0.00  0.00     0.076 C 
ATOM      6  C7  UNL d   1      -0.338  -1.568   0.488  0.00  0.00     0.002 A 
ATOM      7  C8  UNL d   1      -0.887  -0.455  -0.152  0.00  0.00     0.006 A 
ENDROOT
BRANCH   1   8
ATOM      8  C1  UNL d   1      -0.656   1.663  -1.503  0.00  0.00     0.054 C 
ATOM      9  C   UNL d   1      -1.544   1.192  -2.646  0.00  0.00     0.018 C 
ENDBRANCH   1   8
TORSDOF 1
ENDMDL
