MODEL 1
REMARK minimizedAffinity -4.91722822
REMARK minimizedRMSD -1
REMARK  1 active torsions:
REMARK  status: ('A' for Active; 'I' for Inactive)
REMARK    1  A    between atoms: C1_2  and  C2_3 
ROOT
ATOM      1  C2  UNL d   1      -0.371   0.700  -0.156  0.00  0.00    -0.081 A 
ATOM      2  C3  UNL d   1       0.973   0.528  -0.511  0.00  0.00     0.006 A 
ATOM      3  C4  UNL d   1       1.647  -0.649  -0.180  0.00  0.00     0.002 A 
ATOM      4  C5  UNL d   1       0.988  -1.677   0.503  0.00  0.00    -0.080 A 
ATOM      5  C6  UNL d   1       1.692  -2.959   0.836  0.00  0.00     0.076 C 
ATOM      6  C7  UNL d   1      -0.349  -1.498   0.872  0.00  0.00     0.002 A 
ATOM      7  C8  UNL d   1      -1.024  -0.321   0.543  0.00  0.00     0.006 A 
ENDROOT
BRANCH   1   8
ATOM      8  C1  UNL d   1      -1.119   1.942  -0.567  0.00  0.00     0.054 C 
ATOM      9  C   UNL d   1      -1.694   1.803  -1.970  0.00  0.00     0.018 C 
ENDBRANCH   1   8
TORSDOF 1
ENDMDL
