MODEL 1
REMARK minimizedAffinity -3.08341956
REMARK minimizedRMSD -1
REMARK  1 active torsions:
REMARK  status: ('A' for Active; 'I' for Inactive)
REMARK    1  A    between atoms: C1_2  and  C2_3 
ROOT
ATOM      1  C2  UNL d   1      -0.191   0.816  -0.032  0.00  0.00    -0.081 A 
ATOM      2  C3  UNL d   1       1.166   0.576  -0.277  0.00  0.00     0.006 A 
ATOM      3  C4  UNL d   1       1.751  -0.635   0.100  0.00  0.00     0.002 A 
ATOM      4  C5  UNL d   1       0.987  -1.629   0.721  0.00  0.00    -0.080 A 
ATOM      5  C6  UNL d   1       1.595  -2.946   1.103  0.00  0.00     0.076 C 
ATOM      6  C7  UNL d   1      -0.365  -1.382   0.982  0.00  0.00     0.002 A 
ATOM      7  C8  UNL d   1      -0.950  -0.171   0.606  0.00  0.00     0.006 A 
ENDROOT
BRANCH   1   8
ATOM      8  C1  UNL d   1      -0.840   2.096  -0.495  0.00  0.00     0.054 C 
ATOM      9  C   UNL d   1      -1.828   1.838  -1.624  0.00  0.00     0.018 C 
ENDBRANCH   1   8
TORSDOF 1
ENDMDL
