MODEL 1
REMARK minimizedAffinity -2.79663467
REMARK minimizedRMSD -1
REMARK  1 active torsions:
REMARK  status: ('A' for Active; 'I' for Inactive)
REMARK    1  A    between atoms: C1_2  and  C2_3 
ROOT
ATOM      1  C2  UNL d   1       2.202  -0.224   0.256  0.00  0.00    -0.081 A 
ATOM      2  C3  UNL d   1       1.558   1.006   0.072  0.00  0.00     0.006 A 
ATOM      3  C4  UNL d   1       0.264   1.207   0.558  0.00  0.00     0.002 A 
ATOM      4  C5  UNL d   1      -0.404   0.186   1.243  0.00  0.00    -0.080 A 
ATOM      5  C6  UNL d   1      -1.782   0.399   1.796  0.00  0.00     0.076 C 
ATOM      6  C7  UNL d   1       0.233  -1.048   1.411  0.00  0.00     0.002 A 
ATOM      7  C8  UNL d   1       1.527  -1.250   0.925  0.00  0.00     0.006 A 
ENDROOT
BRANCH   1   8
ATOM      8  C1  UNL d   1       3.622  -0.422  -0.210  0.00  0.00     0.054 C 
ATOM      9  C   UNL d   1       4.045   0.673  -1.178  0.00  0.00     0.018 C 
ENDBRANCH   1   8
TORSDOF 1
ENDMDL
