MODEL 1
REMARK minimizedAffinity -1.33852601
REMARK minimizedRMSD -1
REMARK  1 active torsions:
REMARK  status: ('A' for Active; 'I' for Inactive)
REMARK    1  A    between atoms: C1_2  and  C2_3 
ROOT
ATOM      1  C2  UNL d   1      -0.757   3.598  -3.455  0.00  0.00    -0.081 A 
ATOM      2  C3  UNL d   1      -0.391   2.282  -3.149  0.00  0.00     0.006 A 
ATOM      3  C4  UNL d   1      -1.366   1.322  -2.872  0.00  0.00     0.002 A 
ATOM      4  C5  UNL d   1      -2.724   1.659  -2.903  0.00  0.00    -0.080 A 
ATOM      5  C6  UNL d   1      -3.782   0.631  -2.637  0.00  0.00     0.076 C 
ATOM      6  C7  UNL d   1      -3.089   2.978  -3.192  0.00  0.00     0.002 A 
ATOM      7  C8  UNL d   1      -2.114   3.939  -3.469  0.00  0.00     0.006 A 
ENDROOT
BRANCH   1   8
ATOM      8  C1  UNL d   1       0.290   4.621  -3.819  0.00  0.00     0.054 C 
ATOM      9  C   UNL d   1      -0.025   5.977  -3.203  0.00  0.00     0.018 C 
ENDBRANCH   1   8
TORSDOF 1
ENDMDL
