MODEL 1
REMARK minimizedAffinity -5.47886944
REMARK minimizedRMSD -1
REMARK  1 active torsions:
REMARK  status: ('A' for Active; 'I' for Inactive)
REMARK    1  A    between atoms: C1_2  and  C2_3 
ROOT
ATOM      1  C2  UNL d   1      -0.122   0.657  -0.232  0.00  0.00    -0.081 A 
ATOM      2  C3  UNL d   1       1.273   0.540  -0.263  0.00  0.00     0.006 A 
ATOM      3  C4  UNL d   1       1.891  -0.662   0.091  0.00  0.00     0.002 A 
ATOM      4  C5  UNL d   1       1.125  -1.768   0.475  0.00  0.00    -0.080 A 
ATOM      5  C6  UNL d   1       1.775  -3.072   0.829  0.00  0.00     0.076 C 
ATOM      6  C7  UNL d   1      -0.268  -1.646   0.524  0.00  0.00     0.002 A 
ATOM      7  C8  UNL d   1      -0.886  -0.445   0.170  0.00  0.00     0.006 A 
ENDROOT
BRANCH   1   8
ATOM      8  C1  UNL d   1      -0.795   1.930  -0.675  0.00  0.00     0.054 C 
ATOM      9  C   UNL d   1      -1.464   1.759  -2.032  0.00  0.00     0.018 C 
ENDBRANCH   1   8
TORSDOF 1
ENDMDL
