MODEL 1
REMARK minimizedAffinity -2.77586961
REMARK minimizedRMSD -1
REMARK  1 active torsions:
REMARK  status: ('A' for Active; 'I' for Inactive)
REMARK    1  A    between atoms: C1_2  and  C2_3 
ROOT
ATOM      1  C2  UNL d   1      -0.481   0.677  -0.094  0.00  0.00    -0.081 A 
ATOM      2  C3  UNL d   1       0.820   0.490  -0.574  0.00  0.00     0.006 A 
ATOM      3  C4  UNL d   1       1.536  -0.664  -0.247  0.00  0.00     0.002 A 
ATOM      4  C5  UNL d   1       0.960  -1.653   0.559  0.00  0.00    -0.080 A 
ATOM      5  C6  UNL d   1       1.706  -2.910   0.892  0.00  0.00     0.076 C 
ATOM      6  C7  UNL d   1      -0.334  -1.457   1.053  0.00  0.00     0.002 A 
ATOM      7  C8  UNL d   1      -1.050  -0.303   0.727  0.00  0.00     0.006 A 
ENDROOT
BRANCH   1   8
ATOM      8  C1  UNL d   1      -1.280   1.891  -0.498  0.00  0.00     0.054 C 
ATOM      9  C   UNL d   1      -0.858   2.399  -1.869  0.00  0.00     0.018 C 
ENDBRANCH   1   8
TORSDOF 1
ENDMDL
