MODEL 1
REMARK minimizedAffinity 0.00202873349
REMARK minimizedRMSD -1
REMARK  1 active torsions:
REMARK  status: ('A' for Active; 'I' for Inactive)
REMARK    1  A    between atoms: C1_2  and  C2_3 
ROOT
ATOM      1  C2  UNL d   1       2.321   0.852   0.058  0.00  0.00    -0.081 A 
ATOM      2  C3  UNL d   1       2.554  -0.422   0.591  0.00  0.00     0.006 A 
ATOM      3  C4  UNL d   1       1.499  -1.322   0.760  0.00  0.00     0.002 A 
ATOM      4  C5  UNL d   1       0.197  -0.966   0.394  0.00  0.00    -0.080 A 
ATOM      5  C6  UNL d   1      -0.940  -1.934   0.543  0.00  0.00     0.076 C 
ATOM      6  C7  UNL d   1      -0.038   0.313  -0.122  0.00  0.00     0.002 A 
ATOM      7  C8  UNL d   1       1.016   1.213  -0.291  0.00  0.00     0.006 A 
ENDROOT
BRANCH   1   8
ATOM      8  C1  UNL d   1       3.467   1.801  -0.186  0.00  0.00     0.054 C 
ATOM      9  C   UNL d   1       4.303   1.363  -1.380  0.00  0.00     0.018 C 
ENDBRANCH   1   8
TORSDOF 1
ENDMDL
