MODEL 1
REMARK minimizedAffinity -2.96183705
REMARK minimizedRMSD -1
REMARK  0 active torsions:
REMARK  status: ('A' for Active; 'I' for Inactive)
ROOT
ATOM      1  N1  IND d   1       1.341   0.544   0.419  0.00  0.00    -0.196 N 
ATOM      2  C2  IND d   1       0.224   1.014  -0.214  0.00  0.00     0.054 A 
ATOM      3  C3  IND d   1      -0.632   0.000  -0.473  0.00  0.00    -0.031 A 
ATOM      4  C4  IND d   1      -0.449  -2.493   0.144  0.00  0.00     0.051 A 
ATOM      5  C5  IND d   1       0.405  -3.406   0.695  0.00  0.00    -0.031 A 
ATOM      6  C6  IND d   1       1.639  -3.042   1.195  0.00  0.00     0.015 A 
ATOM      7  C7  IND d   1       2.061  -1.743   1.172  0.00  0.00    -0.016 A 
ATOM      8  C8  IND d   1       1.199  -0.814   0.607  0.00  0.00    -0.047 A 
ATOM      9  C9  IND d   1      -0.036  -1.184   0.060  0.00  0.00    -0.096 A 
ATOM     10  HN1 IND d   1       2.018   1.016   0.660  0.00  0.00     0.298 HD
ENDROOT
TORSDOF 0
ENDMDL
