MODEL 1
REMARK minimizedAffinity -4.74986029
REMARK minimizedRMSD -1
REMARK  0 active torsions:
REMARK  status: ('A' for Active; 'I' for Inactive)
ROOT
ATOM      1  N1  IND d   1      -2.415   0.230  -0.598  0.00  0.00    -0.196 N 
ATOM      2  C2  IND d   1      -2.392   1.228  -1.532  0.00  0.00     0.054 A 
ATOM      3  C3  IND d   1      -1.118   1.592  -1.799  0.00  0.00    -0.031 A 
ATOM      4  C4  IND d   1       1.087   0.615  -0.898  0.00  0.00     0.051 A 
ATOM      5  C5  IND d   1       1.576  -0.287   0.005  0.00  0.00    -0.031 A 
ATOM      6  C6  IND d   1       0.743  -1.080   0.767  0.00  0.00     0.015 A 
ATOM      7  C7  IND d   1      -0.616  -1.010   0.645  0.00  0.00    -0.016 A 
ATOM      8  C8  IND d   1      -1.116  -0.090  -0.266  0.00  0.00    -0.047 A 
ATOM      9  C9  IND d   1      -0.277   0.748  -1.011  0.00  0.00    -0.096 A 
ATOM     10  HN1 IND d   1      -3.121  -0.137  -0.273  0.00  0.00     0.298 HD
ENDROOT
TORSDOF 0
ENDMDL
