MODEL 1
REMARK minimizedAffinity -3.18278003
REMARK minimizedRMSD -1
REMARK  0 active torsions:
REMARK  status: ('A' for Active; 'I' for Inactive)
ROOT
ATOM      1  N1  IND d   1      -0.672   0.767  -0.501  0.00  0.00    -0.196 N 
ATOM      2  C2  IND d   1       0.222   1.801  -0.510  0.00  0.00     0.054 A 
ATOM      3  C3  IND d   1       1.407   1.402   0.005  0.00  0.00    -0.031 A 
ATOM      4  C4  IND d   1       2.132  -0.927   0.828  0.00  0.00     0.051 A 
ATOM      5  C5  IND d   1       1.650  -2.184   1.064  0.00  0.00    -0.031 A 
ATOM      6  C6  IND d   1       0.344  -2.529   0.783  0.00  0.00     0.015 A 
ATOM      7  C7  IND d   1      -0.529  -1.630   0.242  0.00  0.00    -0.016 A 
ATOM      8  C8  IND d   1      -0.046  -0.350   0.006  0.00  0.00    -0.047 A 
ATOM      9  C9  IND d   1       1.267   0.018   0.329  0.00  0.00    -0.096 A 
ATOM     10  HN1 IND d   1      -1.488   0.807  -0.768  0.00  0.00     0.298 HD
ENDROOT
TORSDOF 0
ENDMDL
