MODEL 1
REMARK minimizedAffinity 3.47888732
REMARK minimizedRMSD -1
REMARK  0 active torsions:
REMARK  status: ('A' for Active; 'I' for Inactive)
ROOT
ATOM      1  N1  IND d   1      -1.450   0.250  -0.496  0.00  0.00    -0.196 N 
ATOM      2  C2  IND d   1      -0.393   0.824   0.154  0.00  0.00     0.054 A 
ATOM      3  C3  IND d   1       0.027   1.925  -0.510  0.00  0.00    -0.031 A 
ATOM      4  C4  IND d   1      -0.940   3.025  -2.627  0.00  0.00     0.051 A 
ATOM      5  C5  IND d   1      -1.883   2.845  -3.600  0.00  0.00    -0.031 A 
ATOM      6  C6  IND d   1      -2.749   1.771  -3.586  0.00  0.00     0.015 A 
ATOM      7  C7  IND d   1      -2.712   0.839  -2.588  0.00  0.00    -0.016 A 
ATOM      8  C8  IND d   1      -1.751   1.014  -1.603  0.00  0.00    -0.047 A 
ATOM      9  C9  IND d   1      -0.841   2.079  -1.634  0.00  0.00    -0.096 A 
ATOM     10  HN1 IND d   1      -1.858  -0.467  -0.255  0.00  0.00     0.298 HD
ENDROOT
TORSDOF 0
ENDMDL
