MODEL 1
REMARK minimizedAffinity -1.62581909
REMARK minimizedRMSD -1
REMARK  0 active torsions:
REMARK  status: ('A' for Active; 'I' for Inactive)
ROOT
ATOM      1  N1  IND d   1       0.513  -2.290   1.788  0.00  0.00    -0.196 N 
ATOM      2  C2  IND d   1       1.481  -3.068   1.216  0.00  0.00     0.054 A 
ATOM      3  C3  IND d   1       1.826  -2.575   0.005  0.00  0.00    -0.031 A 
ATOM      4  C4  IND d   1       1.004  -0.449  -1.190  0.00  0.00     0.051 A 
ATOM      5  C5  IND d   1       0.095   0.566  -1.079  0.00  0.00    -0.031 A 
ATOM      6  C6  IND d   1      -0.735   0.685   0.016  0.00  0.00     0.015 A 
ATOM      7  C7  IND d   1      -0.680  -0.204   1.052  0.00  0.00    -0.016 A 
ATOM      8  C8  IND d   1       0.236  -1.240   0.939  0.00  0.00    -0.047 A 
ATOM      9  C9  IND d   1       1.052  -1.390  -0.189  0.00  0.00    -0.096 A 
ATOM     10  HN1 IND d   1       0.139  -2.432   2.549  0.00  0.00     0.298 HD
ENDROOT
TORSDOF 0
ENDMDL
