MODEL 1
REMARK minimizedAffinity -2.94575787
REMARK minimizedRMSD -1
REMARK  0 active torsions:
REMARK  status: ('A' for Active; 'I' for Inactive)
ROOT
ATOM      1  N1  IND d   1      -2.055   2.483  -2.354  0.00  0.00    -0.196 N 
ATOM      2  C2  IND d   1      -2.396   1.810  -3.494  0.00  0.00     0.054 A 
ATOM      3  C3  IND d   1      -1.992   0.522  -3.419  0.00  0.00    -0.031 A 
ATOM      4  C4  IND d   1      -0.846  -0.722  -1.479  0.00  0.00     0.051 A 
ATOM      5  C5  IND d   1      -0.300  -0.519  -0.242  0.00  0.00    -0.031 A 
ATOM      6  C6  IND d   1      -0.314   0.719   0.367  0.00  0.00     0.015 A 
ATOM      7  C7  IND d   1      -0.887   1.803  -0.235  0.00  0.00    -0.016 A 
ATOM      8  C8  IND d   1      -1.436   1.602  -1.494  0.00  0.00    -0.047 A 
ATOM      9  C9  IND d   1      -1.387   0.358  -2.136  0.00  0.00    -0.096 A 
ATOM     10  HN1 IND d   1      -2.202   3.316  -2.200  0.00  0.00     0.298 HD
ENDROOT
TORSDOF 0
ENDMDL
