MODEL 1
REMARK minimizedAffinity -3.01018596
REMARK minimizedRMSD -1
REMARK  0 active torsions:
REMARK  status: ('A' for Active; 'I' for Inactive)
ROOT
ATOM      1  N1  IND d   1       1.101   1.163   0.198  0.00  0.00    -0.196 N 
ATOM      2  C2  IND d   1      -0.168   1.618  -0.026  0.00  0.00     0.054 A 
ATOM      3  C3  IND d   1      -1.038   0.585  -0.066  0.00  0.00    -0.031 A 
ATOM      4  C4  IND d   1      -0.613  -1.927   0.310  0.00  0.00     0.051 A 
ATOM      5  C5  IND d   1       0.392  -2.831   0.510  0.00  0.00    -0.031 A 
ATOM      6  C6  IND d   1       1.711  -2.442   0.622  0.00  0.00     0.015 A 
ATOM      7  C7  IND d   1       2.074  -1.127   0.548  0.00  0.00    -0.016 A 
ATOM      8  C8  IND d   1       1.057  -0.207   0.338  0.00  0.00    -0.047 A 
ATOM      9  C9  IND d   1      -0.278  -0.599   0.181  0.00  0.00    -0.096 A 
ATOM     10  HN1 IND d   1       1.808   1.651   0.244  0.00  0.00     0.298 HD
ENDROOT
TORSDOF 0
ENDMDL
