MODEL 1
REMARK minimizedAffinity -3.37232804
REMARK minimizedRMSD -1
REMARK  0 active torsions:
REMARK  status: ('A' for Active; 'I' for Inactive)
ROOT
ATOM      1  N1  IND d   1      -0.786   0.555  -0.174  0.00  0.00    -0.196 N 
ATOM      2  C2  IND d   1       0.236   1.118  -0.886  0.00  0.00     0.054 A 
ATOM      3  C3  IND d   1       1.354   0.365  -0.780  0.00  0.00    -0.031 A 
ATOM      4  C4  IND d   1       1.703  -1.883   0.426  0.00  0.00     0.051 A 
ATOM      5  C5  IND d   1       1.070  -2.775   1.245  0.00  0.00    -0.031 A 
ATOM      6  C6  IND d   1      -0.241  -2.601   1.639  0.00  0.00     0.015 A 
ATOM      7  C7  IND d   1      -0.975  -1.529   1.217  0.00  0.00    -0.016 A 
ATOM      8  C8  IND d   1      -0.334  -0.617   0.391  0.00  0.00    -0.047 A 
ATOM      9  C9  IND d   1       1.010  -0.766   0.022  0.00  0.00    -0.096 A 
ATOM     10  HN1 IND d   1      -1.579   0.879  -0.092  0.00  0.00     0.298 HD
ENDROOT
TORSDOF 0
ENDMDL
