MODEL 1
REMARK minimizedAffinity -5.04368496
REMARK minimizedRMSD -1
REMARK  0 active torsions:
REMARK  status: ('A' for Active; 'I' for Inactive)
ROOT
ATOM      1  N1  IND d   1       0.900   0.888  -0.571  0.00  0.00    -0.196 N 
ATOM      2  C2  IND d   1      -0.317   1.489  -0.411  0.00  0.00     0.054 A 
ATOM      3  C3  IND d   1      -1.139   0.700   0.318  0.00  0.00    -0.031 A 
ATOM      4  C4  IND d   1      -0.662  -1.571   1.432  0.00  0.00     0.051 A 
ATOM      5  C5  IND d   1       0.296  -2.539   1.536  0.00  0.00    -0.031 A 
ATOM      6  C6  IND d   1       1.531  -2.412   0.933  0.00  0.00     0.015 A 
ATOM      7  C7  IND d   1       1.858  -1.300   0.209  0.00  0.00    -0.016 A 
ATOM      8  C8  IND d   1       0.885  -0.317   0.096  0.00  0.00    -0.047 A 
ATOM      9  C9  IND d   1      -0.384  -0.460   0.670  0.00  0.00    -0.096 A 
ATOM     10  HN1 IND d   1       1.563   1.208  -1.015  0.00  0.00     0.298 HD
ENDROOT
TORSDOF 0
ENDMDL
