MODEL 1
REMARK minimizedAffinity -4.71147394
REMARK minimizedRMSD -1
REMARK  0 active torsions:
REMARK  status: ('A' for Active; 'I' for Inactive)
ROOT
ATOM      1  N1  IND d   1      -1.247   0.139  -0.836  0.00  0.00    -0.196 N 
ATOM      2  C2  IND d   1      -0.857   1.438  -0.668  0.00  0.00     0.054 A 
ATOM      3  C3  IND d   1       0.385   1.491  -0.138  0.00  0.00    -0.031 A 
ATOM      4  C4  IND d   1       2.001  -0.428   0.439  0.00  0.00     0.051 A 
ATOM      5  C5  IND d   1       2.077  -1.792   0.495  0.00  0.00    -0.031 A 
ATOM      6  C6  IND d   1       1.029  -2.598   0.100  0.00  0.00     0.015 A 
ATOM      7  C7  IND d   1      -0.135  -2.068  -0.379  0.00  0.00    -0.016 A 
ATOM      8  C8  IND d   1      -0.219  -0.683  -0.431  0.00  0.00    -0.047 A 
ATOM      9  C9  IND d   1       0.825   0.140   0.009  0.00  0.00    -0.096 A 
ATOM     10  HN1 IND d   1      -2.007  -0.121  -1.143  0.00  0.00     0.298 HD
ENDROOT
TORSDOF 0
ENDMDL
