MODEL 1
REMARK minimizedAffinity -3.87709808
REMARK minimizedRMSD -1
REMARK  0 active torsions:
REMARK  status: ('A' for Active; 'I' for Inactive)
ROOT
ATOM      1  N1  IND d   1       1.907  -1.507  -0.149  0.00  0.00    -0.196 N 
ATOM      2  C2  IND d   1       1.893  -2.683   0.546  0.00  0.00     0.054 A 
ATOM      3  C3  IND d   1       0.821  -2.731   1.368  0.00  0.00    -0.031 A 
ATOM      4  C4  IND d   1      -1.095  -1.036   1.658  0.00  0.00     0.051 A 
ATOM      5  C5  IND d   1      -1.501   0.208   1.264  0.00  0.00    -0.031 A 
ATOM      6  C6  IND d   1      -0.779   0.958   0.359  0.00  0.00     0.015 A 
ATOM      7  C7  IND d   1       0.375   0.485  -0.198  0.00  0.00    -0.016 A 
ATOM      8  C8  IND d   1       0.795  -0.775   0.205  0.00  0.00    -0.047 A 
ATOM      9  C9  IND d   1       0.089  -1.523   1.156  0.00  0.00    -0.096 A 
ATOM     10  HN1 IND d   1       2.509  -1.264  -0.714  0.00  0.00     0.298 HD
ENDROOT
TORSDOF 0
ENDMDL
