MODEL 1
REMARK minimizedAffinity -3.45296478
REMARK minimizedRMSD -1
REMARK  0 active torsions:
REMARK  status: ('A' for Active; 'I' for Inactive)
ROOT
ATOM      1  N1  IND d   1       1.849   0.705  -0.305  0.00  0.00    -0.196 N 
ATOM      2  C2  IND d   1       0.654   1.113  -0.829  0.00  0.00     0.054 A 
ATOM      3  C3  IND d   1      -0.313   0.209  -0.554  0.00  0.00    -0.031 A 
ATOM      4  C4  IND d   1      -0.181  -1.959   0.828  0.00  0.00     0.051 A 
ATOM      5  C5  IND d   1       0.707  -2.769   1.480  0.00  0.00    -0.031 A 
ATOM      6  C6  IND d   1       2.047  -2.454   1.574  0.00  0.00     0.015 A 
ATOM      7  C7  IND d   1       2.550  -1.308   1.027  0.00  0.00    -0.016 A 
ATOM      8  C8  IND d   1       1.653  -0.486   0.359  0.00  0.00    -0.047 A 
ATOM      9  C9  IND d   1       0.299  -0.821   0.224  0.00  0.00    -0.096 A 
ATOM     10  HN1 IND d   1       2.597   1.122  -0.377  0.00  0.00     0.298 HD
ENDROOT
TORSDOF 0
ENDMDL
