MODEL 1
REMARK minimizedAffinity -4.43573904
REMARK minimizedRMSD -1
REMARK  0 active torsions:
REMARK  status: ('A' for Active; 'I' for Inactive)
ROOT
ATOM      1  N1  IND d   1       0.441  -2.387   1.725  0.00  0.00    -0.196 N 
ATOM      2  C2  IND d   1       1.737  -2.798   1.577  0.00  0.00     0.054 A 
ATOM      3  C3  IND d   1       2.428  -1.911   0.827  0.00  0.00    -0.031 A 
ATOM      4  C4  IND d   1       1.661   0.334  -0.174  0.00  0.00     0.051 A 
ATOM      5  C5  IND d   1       0.554   1.118  -0.336  0.00  0.00    -0.031 A 
ATOM      6  C6  IND d   1      -0.672   0.769   0.193  0.00  0.00     0.015 A 
ATOM      7  C7  IND d   1      -0.834  -0.378   0.918  0.00  0.00    -0.016 A 
ATOM      8  C8  IND d   1       0.287  -1.181   1.079  0.00  0.00    -0.047 A 
ATOM      9  C9  IND d   1       1.523  -0.852   0.508  0.00  0.00    -0.096 A 
ATOM     10  HN1 IND d   1      -0.174  -2.811   2.151  0.00  0.00     0.298 HD
ENDROOT
TORSDOF 0
ENDMDL
