MODEL 1
REMARK minimizedAffinity -2.83205128
REMARK minimizedRMSD -1
REMARK  0 active torsions:
REMARK  status: ('A' for Active; 'I' for Inactive)
ROOT
ATOM      1  N1  IND d   1       0.092  -2.243   1.439  0.00  0.00    -0.196 N 
ATOM      2  C2  IND d   1       1.293  -2.733   1.008  0.00  0.00     0.054 A 
ATOM      3  C3  IND d   1       1.903  -1.838   0.199  0.00  0.00    -0.031 A 
ATOM      4  C4  IND d   1       1.158   0.533  -0.473  0.00  0.00     0.051 A 
ATOM      5  C5  IND d   1       0.113   1.407  -0.358  0.00  0.00    -0.031 A 
ATOM      6  C6  IND d   1      -1.013   1.104   0.379  0.00  0.00     0.015 A 
ATOM      7  C7  IND d   1      -1.133  -0.085   1.041  0.00  0.00    -0.016 A 
ATOM      8  C8  IND d   1      -0.077  -0.978   0.921  0.00  0.00    -0.047 A 
ATOM      9  C9  IND d   1       1.050  -0.694   0.139  0.00  0.00    -0.096 A 
ATOM     10  HN1 IND d   1      -0.465  -2.656   1.948  0.00  0.00     0.298 HD
ENDROOT
TORSDOF 0
ENDMDL
