MODEL 1
REMARK minimizedAffinity -1.87276113
REMARK minimizedRMSD -1
REMARK  0 active torsions:
REMARK  status: ('A' for Active; 'I' for Inactive)
ROOT
ATOM      1  N1  IND d   1      -1.553  -0.008   0.056  0.00  0.00    -0.196 N 
ATOM      2  C2  IND d   1      -1.069   1.184  -0.407  0.00  0.00     0.054 A 
ATOM      3  C3  IND d   1       0.282   1.159  -0.447  0.00  0.00    -0.031 A 
ATOM      4  C4  IND d   1       1.899  -0.767   0.102  0.00  0.00     0.051 A 
ATOM      5  C5  IND d   1       1.929  -2.040   0.599  0.00  0.00    -0.031 A 
ATOM      6  C6  IND d   1       0.777  -2.715   0.944  0.00  0.00     0.015 A 
ATOM      7  C7  IND d   1      -0.455  -2.144   0.795  0.00  0.00    -0.016 A 
ATOM      8  C8  IND d   1      -0.489  -0.849   0.297  0.00  0.00    -0.047 A 
ATOM      9  C9  IND d   1       0.679  -0.143  -0.016  0.00  0.00    -0.096 A 
ATOM     10  HN1 IND d   1      -2.383  -0.200   0.175  0.00  0.00     0.298 HD
ENDROOT
TORSDOF 0
ENDMDL
