MODEL 1
REMARK minimizedAffinity -2.25081873
REMARK minimizedRMSD -1
REMARK  2 active torsions:
REMARK  status: ('A' for Active; 'I' for Inactive)
REMARK    1  A    between atoms: C2'_3  and  C1'_4 
REMARK    2  A    between atoms: C1'_4  and  C1_5 
ROOT
ATOM      1  C1  I4B d   1       0.546  -0.895   0.388  0.00  0.00    -0.075 A 
ATOM      2  C2  I4B d   1       1.419   0.127   0.104  0.00  0.00     0.003 A 
ATOM      3  C3  I4B d   1       2.356  -0.008  -0.949  0.00  0.00     0.002 A 
ATOM      4  C4  I4B d   1       2.419  -1.192  -1.655  0.00  0.00    -0.004 A 
ATOM      5  C5  I4B d   1       1.518  -2.218  -1.381  0.00  0.00     0.002 A 
ATOM      6  C6  I4B d   1       0.568  -2.064  -0.361  0.00  0.00     0.003 A 
ENDROOT
BRANCH   1   7
ATOM      7  C1' I4B d   1      -0.408  -0.731   1.528  0.00  0.00     0.060 C 
BRANCH   7   8
ATOM      8  C2' I4B d   1       0.193  -1.413   2.741  0.00  0.00    -0.013 C 
ATOM      9  C4' I4B d   1       0.172  -2.911   2.590  0.00  0.00     0.013 C 
ATOM     10  C3' I4B d   1       1.594  -0.905   2.911  0.00  0.00     0.013 C 
ENDBRANCH   7   8
ENDBRANCH   1   7
TORSDOF 2
ENDMDL
