MODEL 1
REMARK minimizedAffinity 9.02598381
REMARK minimizedRMSD -1
REMARK  2 active torsions:
REMARK  status: ('A' for Active; 'I' for Inactive)
REMARK    1  A    between atoms: C2'_3  and  C1'_4 
REMARK    2  A    between atoms: C1'_4  and  C1_5 
ROOT
ATOM      1  C1  I4B d   1      -3.168  -0.107   3.411  0.00  0.00    -0.075 A 
ATOM      2  C2  I4B d   1      -3.042  -0.501   2.102  0.00  0.00     0.003 A 
ATOM      3  C3  I4B d   1      -3.845  -1.549   1.592  0.00  0.00     0.002 A 
ATOM      4  C4  I4B d   1      -4.720  -2.206   2.434  0.00  0.00    -0.004 A 
ATOM      5  C5  I4B d   1      -4.863  -1.790   3.754  0.00  0.00     0.002 A 
ATOM      6  C6  I4B d   1      -4.091  -0.726   4.243  0.00  0.00     0.003 A 
ENDROOT
BRANCH   1   7
ATOM      7  C1' I4B d   1      -2.281   0.982   3.925  0.00  0.00     0.060 C 
BRANCH   7   8
ATOM      8  C2' I4B d   1      -2.311   0.933   5.439  0.00  0.00    -0.013 C 
ATOM      9  C4' I4B d   1      -0.975   0.521   5.999  0.00  0.00     0.013 C 
ATOM     10  C3' I4B d   1      -2.712   2.289   5.938  0.00  0.00     0.013 C 
ENDBRANCH   7   8
ENDBRANCH   1   7
TORSDOF 2
ENDMDL
