MODEL 1
REMARK minimizedAffinity 19.5891609
REMARK minimizedRMSD -1
REMARK  2 active torsions:
REMARK  status: ('A' for Active; 'I' for Inactive)
REMARK    1  A    between atoms: C2'_3  and  C1'_4 
REMARK    2  A    between atoms: C1'_4  and  C1_5 
ROOT
ATOM      1  C1  I4B d   1       2.881  -0.201   1.655  0.00  0.00    -0.075 A 
ATOM      2  C2  I4B d   1       3.853   0.444   2.377  0.00  0.00     0.003 A 
ATOM      3  C3  I4B d   1       4.302   1.727   1.981  0.00  0.00     0.002 A 
ATOM      4  C4  I4B d   1       3.792   2.301   0.835  0.00  0.00    -0.004 A 
ATOM      5  C5  I4B d   1       2.790   1.656   0.116  0.00  0.00     0.002 A 
ATOM      6  C6  I4B d   1       2.322   0.402   0.535  0.00  0.00     0.003 A 
ENDROOT
BRANCH   1   7
ATOM      7  C1' I4B d   1       2.453  -1.569   2.083  0.00  0.00     0.060 C 
BRANCH   7   8
ATOM      8  C2' I4B d   1       1.339  -1.414   3.099  0.00  0.00    -0.013 C 
ATOM      9  C4' I4B d   1      -0.013  -1.465   2.438  0.00  0.00     0.013 C 
ATOM     10  C3' I4B d   1       1.486  -2.504   4.117  0.00  0.00     0.013 C 
ENDBRANCH   7   8
ENDBRANCH   1   7
TORSDOF 2
ENDMDL
