MODEL 1
REMARK minimizedAffinity 5.39317369
REMARK minimizedRMSD -1
REMARK  2 active torsions:
REMARK  status: ('A' for Active; 'I' for Inactive)
REMARK    1  A    between atoms: C2'_3  and  C1'_4 
REMARK    2  A    between atoms: C1'_4  and  C1_5 
ROOT
ATOM      1  C1  I4B d   1      -0.071  -1.415   2.640  0.00  0.00    -0.075 A 
ATOM      2  C2  I4B d   1      -1.041  -1.209   1.690  0.00  0.00     0.003 A 
ATOM      3  C3  I4B d   1      -2.072  -0.266   1.917  0.00  0.00     0.002 A 
ATOM      4  C4  I4B d   1      -2.124   0.408   3.120  0.00  0.00    -0.004 A 
ATOM      5  C5  I4B d   1      -1.128   0.215   4.072  0.00  0.00     0.002 A 
ATOM      6  C6  I4B d   1      -0.088  -0.693   3.826  0.00  0.00     0.003 A 
ENDROOT
BRANCH   1   7
ATOM      7  C1' I4B d   1       0.984  -2.443   2.381  0.00  0.00     0.060 C 
BRANCH   7   8
ATOM      8  C2' I4B d   1       2.021  -2.334   3.481  0.00  0.00    -0.013 C 
ATOM      9  C4' I4B d   1       2.124  -3.617   4.262  0.00  0.00     0.013 C 
ATOM     10  C3' I4B d   1       3.333  -1.979   2.848  0.00  0.00     0.013 C 
ENDBRANCH   7   8
ENDBRANCH   1   7
TORSDOF 2
ENDMDL
