MODEL 1
REMARK minimizedAffinity 14.3478708
REMARK minimizedRMSD -1
REMARK  2 active torsions:
REMARK  status: ('A' for Active; 'I' for Inactive)
REMARK    1  A    between atoms: C2'_3  and  C1'_4 
REMARK    2  A    between atoms: C1'_4  and  C1_5 
ROOT
ATOM      1  C1  I4B d   1      -1.597  -0.027   2.576  0.00  0.00    -0.075 A 
ATOM      2  C2  I4B d   1      -0.296  -0.439   2.432  0.00  0.00     0.003 A 
ATOM      3  C3  I4B d   1       0.013  -1.543   1.600  0.00  0.00     0.002 A 
ATOM      4  C4  I4B d   1      -1.008  -2.231   0.976  0.00  0.00    -0.004 A 
ATOM      5  C5  I4B d   1      -2.324  -1.797   1.105  0.00  0.00     0.002 A 
ATOM      6  C6  I4B d   1      -2.620  -0.680   1.901  0.00  0.00     0.003 A 
ENDROOT
BRANCH   1   7
ATOM      7  C1' I4B d   1      -1.892   1.122   3.489  0.00  0.00     0.060 C 
BRANCH   7   8
ATOM      8  C2' I4B d   1      -2.327   0.556   4.825  0.00  0.00    -0.013 C 
ATOM      9  C4' I4B d   1      -1.148   0.351   5.740  0.00  0.00     0.013 C 
ATOM     10  C3' I4B d   1      -3.321   1.503   5.428  0.00  0.00     0.013 C 
ENDBRANCH   7   8
ENDBRANCH   1   7
TORSDOF 2
ENDMDL
