MODEL 1
REMARK minimizedAffinity 12.1575747
REMARK minimizedRMSD -1
REMARK  2 active torsions:
REMARK  status: ('A' for Active; 'I' for Inactive)
REMARK    1  A    between atoms: C2'_3  and  C1'_4 
REMARK    2  A    between atoms: C1'_4  and  C1_5 
ROOT
ATOM      1  C1  I4B d   1      -5.120  -4.079   3.500  0.00  0.00    -0.075 A 
ATOM      2  C2  I4B d   1      -5.147  -5.441   3.666  0.00  0.00     0.003 A 
ATOM      3  C3  I4B d   1      -5.481  -5.999   4.923  0.00  0.00     0.002 A 
ATOM      4  C4  I4B d   1      -5.731  -5.164   5.993  0.00  0.00    -0.004 A 
ATOM      5  C5  I4B d   1      -5.727  -3.783   5.817  0.00  0.00     0.002 A 
ATOM      6  C6  I4B d   1      -5.431  -3.237   4.560  0.00  0.00     0.003 A 
ENDROOT
BRANCH   1   7
ATOM      7  C1' I4B d   1      -4.731  -3.523   2.167  0.00  0.00     0.060 C 
BRANCH   7   8
ATOM      8  C2' I4B d   1      -4.432  -2.048   2.346  0.00  0.00    -0.013 C 
ATOM      9  C4' I4B d   1      -3.059  -1.704   1.832  0.00  0.00     0.013 C 
ATOM     10  C3' I4B d   1      -5.491  -1.270   1.623  0.00  0.00     0.013 C 
ENDBRANCH   7   8
ENDBRANCH   1   7
TORSDOF 2
ENDMDL
