MODEL 1
REMARK minimizedAffinity 18.9351616
REMARK minimizedRMSD -1
REMARK  2 active torsions:
REMARK  status: ('A' for Active; 'I' for Inactive)
REMARK    1  A    between atoms: C2'_3  and  C1'_4 
REMARK    2  A    between atoms: C1'_4  and  C1_5 
ROOT
ATOM      1  C1  I4B d   1       3.659   1.558  -0.057  0.00  0.00    -0.075 A 
ATOM      2  C2  I4B d   1       2.641   1.193   0.789  0.00  0.00     0.003 A 
ATOM      3  C3  I4B d   1       1.311   1.111   0.310  0.00  0.00     0.002 A 
ATOM      4  C4  I4B d   1       1.039   1.448  -1.000  0.00  0.00    -0.004 A 
ATOM      5  C5  I4B d   1       2.075   1.795  -1.862  0.00  0.00     0.002 A 
ATOM      6  C6  I4B d   1       3.395   1.839  -1.391  0.00  0.00     0.003 A 
ENDROOT
BRANCH   1   7
ATOM      7  C1' I4B d   1       5.047   1.666   0.490  0.00  0.00     0.060 C 
BRANCH   7   8
ATOM      8  C2' I4B d   1       5.231   3.074   1.019  0.00  0.00    -0.013 C 
ATOM      9  C4' I4B d   1       5.950   3.070   2.342  0.00  0.00     0.013 C 
ATOM     10  C3' I4B d   1       5.992   3.859  -0.008  0.00  0.00     0.013 C 
ENDBRANCH   7   8
ENDBRANCH   1   7
TORSDOF 2
ENDMDL
