MODEL 1
REMARK minimizedAffinity 14.6624098
REMARK minimizedRMSD -1
REMARK  2 active torsions:
REMARK  status: ('A' for Active; 'I' for Inactive)
REMARK    1  A    between atoms: C2'_3  and  C1'_4 
REMARK    2  A    between atoms: C1'_4  and  C1_5 
ROOT
ATOM      1  C1  I4B d   1      -2.417  -0.922   2.078  0.00  0.00    -0.075 A 
ATOM      2  C2  I4B d   1      -3.107   0.263   2.139  0.00  0.00     0.003 A 
ATOM      3  C3  I4B d   1      -2.885   1.163   3.209  0.00  0.00     0.002 A 
ATOM      4  C4  I4B d   1      -2.007   0.818   4.216  0.00  0.00    -0.004 A 
ATOM      5  C5  I4B d   1      -1.292  -0.374   4.141  0.00  0.00     0.002 A 
ATOM      6  C6  I4B d   1      -1.489  -1.244   3.059  0.00  0.00     0.003 A 
ENDROOT
BRANCH   1   7
ATOM      7  C1' I4B d   1      -2.701  -1.865   0.951  0.00  0.00     0.060 C 
BRANCH   7   8
ATOM      8  C2' I4B d   1      -2.490  -3.276   1.459  0.00  0.00    -0.013 C 
ATOM      9  C4' I4B d   1      -3.795  -4.020   1.560  0.00  0.00     0.013 C 
ATOM     10  C3' I4B d   1      -1.543  -3.968   0.524  0.00  0.00     0.013 C 
ENDBRANCH   7   8
ENDBRANCH   1   7
TORSDOF 2
ENDMDL
