MODEL 1
REMARK minimizedAffinity 9.08740044
REMARK minimizedRMSD -1
REMARK  2 active torsions:
REMARK  status: ('A' for Active; 'I' for Inactive)
REMARK    1  A    between atoms: C2'_3  and  C1'_4 
REMARK    2  A    between atoms: C1'_4  and  C1_5 
ROOT
ATOM      1  C1  I4B d   1       0.296  -2.144   2.637  0.00  0.00    -0.075 A 
ATOM      2  C2  I4B d   1      -0.712  -1.248   2.890  0.00  0.00     0.003 A 
ATOM      3  C3  I4B d   1      -1.954  -1.363   2.219  0.00  0.00     0.002 A 
ATOM      4  C4  I4B d   1      -2.125  -2.353   1.273  0.00  0.00    -0.004 A 
ATOM      5  C5  I4B d   1      -1.110  -3.274   1.034  0.00  0.00     0.002 A 
ATOM      6  C6  I4B d   1       0.105  -3.177   1.729  0.00  0.00     0.003 A 
ENDROOT
BRANCH   1   7
ATOM      7  C1' I4B d   1       1.606  -1.973   3.339  0.00  0.00     0.060 C 
BRANCH   7   8
ATOM      8  C2' I4B d   1       2.678  -1.780   2.286  0.00  0.00    -0.013 C 
ATOM      9  C4' I4B d   1       2.671  -0.372   1.752  0.00  0.00     0.013 C 
ATOM     10  C3' I4B d   1       4.002  -2.117   2.906  0.00  0.00     0.013 C 
ENDBRANCH   7   8
ENDBRANCH   1   7
TORSDOF 2
ENDMDL
