MODEL 1
REMARK minimizedAffinity 13.9057198
REMARK minimizedRMSD -1
REMARK  2 active torsions:
REMARK  status: ('A' for Active; 'I' for Inactive)
REMARK    1  A    between atoms: C2'_3  and  C1'_4 
REMARK    2  A    between atoms: C1'_4  and  C1_5 
ROOT
ATOM      1  C1  I4B d   1      -3.648   0.348   1.264  0.00  0.00    -0.075 A 
ATOM      2  C2  I4B d   1      -3.051  -0.766   0.729  0.00  0.00     0.003 A 
ATOM      3  C3  I4B d   1      -1.765  -1.165   1.167  0.00  0.00     0.002 A 
ATOM      4  C4  I4B d   1      -1.096  -0.398   2.098  0.00  0.00    -0.004 A 
ATOM      5  C5  I4B d   1      -1.712   0.719   2.656  0.00  0.00     0.002 A 
ATOM      6  C6  I4B d   1      -3.002   1.087   2.245  0.00  0.00     0.003 A 
ENDROOT
BRANCH   1   7
ATOM      7  C1' I4B d   1      -4.993   0.759   0.754  0.00  0.00     0.060 C 
BRANCH   7   8
ATOM      8  C2' I4B d   1      -4.850   1.108  -0.713  0.00  0.00    -0.013 C 
ATOM      9  C4' I4B d   1      -5.999   0.560  -1.518  0.00  0.00     0.013 C 
ATOM     10  C3' I4B d   1      -4.771   2.601  -0.830  0.00  0.00     0.013 C 
ENDBRANCH   7   8
ENDBRANCH   1   7
TORSDOF 2
ENDMDL
