MODEL 1
REMARK minimizedAffinity 12.4494514
REMARK minimizedRMSD -1
REMARK  2 active torsions:
REMARK  status: ('A' for Active; 'I' for Inactive)
REMARK    1  A    between atoms: C2'_3  and  C1'_4 
REMARK    2  A    between atoms: C1'_4  and  C1_5 
ROOT
ATOM      1  C1  I4B d   1      -2.334  -2.087   0.818  0.00  0.00    -0.075 A 
ATOM      2  C2  I4B d   1      -2.401  -3.372   1.297  0.00  0.00     0.003 A 
ATOM      3  C3  I4B d   1      -3.639  -4.059   1.324  0.00  0.00     0.002 A 
ATOM      4  C4  I4B d   1      -4.785  -3.410   0.911  0.00  0.00    -0.004 A 
ATOM      5  C5  I4B d   1      -4.712  -2.116   0.404  0.00  0.00     0.002 A 
ATOM      6  C6  I4B d   1      -3.477  -1.454   0.346  0.00  0.00     0.003 A 
ENDROOT
BRANCH   1   7
ATOM      7  C1' I4B d   1      -1.017  -1.379   0.835  0.00  0.00     0.060 C 
BRANCH   7   8
ATOM      8  C2' I4B d   1      -0.588  -1.226   2.280  0.00  0.00    -0.013 C 
ATOM      9  C4' I4B d   1       0.860  -1.599   2.461  0.00  0.00     0.013 C 
ATOM     10  C3' I4B d   1      -0.836   0.195   2.688  0.00  0.00     0.013 C 
ENDBRANCH   7   8
ENDBRANCH   1   7
TORSDOF 2
ENDMDL
