MODEL 1
REMARK minimizedAffinity 14.4709425
REMARK minimizedRMSD -1
REMARK  2 active torsions:
REMARK  status: ('A' for Active; 'I' for Inactive)
REMARK    1  A    between atoms: C2'_3  and  C1'_4 
REMARK    2  A    between atoms: C1'_4  and  C1_5 
ROOT
ATOM      1  C1  I4B d   1       3.557   4.393  -2.742  0.00  0.00    -0.075 A 
ATOM      2  C2  I4B d   1       2.921   5.542  -2.342  0.00  0.00     0.003 A 
ATOM      3  C3  I4B d   1       1.507   5.608  -2.335  0.00  0.00     0.002 A 
ATOM      4  C4  I4B d   1       0.773   4.528  -2.781  0.00  0.00    -0.004 A 
ATOM      5  C5  I4B d   1       1.419   3.356  -3.166  0.00  0.00     0.002 A 
ATOM      6  C6  I4B d   1       2.819   3.284  -3.134  0.00  0.00     0.003 A 
ENDROOT
BRANCH   1   7
ATOM      7  C1' I4B d   1       5.052   4.369  -2.769  0.00  0.00     0.060 C 
BRANCH   7   8
ATOM      8  C2' I4B d   1       5.489   4.014  -4.175  0.00  0.00    -0.013 C 
ATOM      9  C4' I4B d   1       4.355   3.409  -4.962  0.00  0.00     0.013 C 
ATOM     10  C3' I4B d   1       5.997   5.263  -4.831  0.00  0.00     0.013 C 
ENDBRANCH   7   8
ENDBRANCH   1   7
TORSDOF 2
ENDMDL
