MODEL 1
REMARK minimizedAffinity -4.69985962
REMARK minimizedRMSD -1
REMARK  1 active torsions:
REMARK  status: ('A' for Active; 'I' for Inactive)
REMARK    1  A    between atoms: C1_2  and  C2_3 
ROOT
ATOM      1  C2  UNL d   1      -0.907  -0.714   0.065  0.00  0.00    -0.073 A 
ATOM      2  C3  UNL d   1       0.363  -1.111  -0.370  0.00  0.00    -0.002 A 
ATOM      3  C4  UNL d   1       1.501  -0.746   0.351  0.00  0.00     0.004 A 
ATOM      4  C5  UNL d   1       1.381   0.011   1.516  0.00  0.00    -0.004 A 
ATOM      5  C6  UNL d   1       0.119   0.407   1.973  0.00  0.00    -0.075 A 
ATOM      6  C7  UNL d   1      -0.027   1.224   3.223  0.00  0.00     0.076 C 
ATOM      7  C8  UNL d   1      -1.018   0.039   1.242  0.00  0.00     0.001 A 
ENDROOT
BRANCH   1   8
ATOM      8  C1  UNL d   1      -2.139  -1.111  -0.707  0.00  0.00     0.053 C 
ATOM      9  C   UNL d   1      -3.307  -0.176  -0.437  0.00  0.00     0.018 C 
ENDBRANCH   1   8
TORSDOF 1
ENDMDL
