MODEL 1
REMARK minimizedAffinity 2.4033289
REMARK minimizedRMSD -1
REMARK  1 active torsions:
REMARK  status: ('A' for Active; 'I' for Inactive)
REMARK    1  A    between atoms: C1_2  and  C2_3 
ROOT
ATOM      1  C2  UNL d   1       0.210  -1.295   3.723  0.00  0.00    -0.073 A 
ATOM      2  C3  UNL d   1       0.444  -0.426   2.651  0.00  0.00    -0.002 A 
ATOM      3  C4  UNL d   1      -0.617   0.026   1.866  0.00  0.00     0.004 A 
ATOM      4  C5  UNL d   1      -1.922  -0.378   2.148  0.00  0.00    -0.004 A 
ATOM      5  C6  UNL d   1      -2.177  -1.237   3.223  0.00  0.00    -0.075 A 
ATOM      6  C7  UNL d   1      -3.575  -1.683   3.538  0.00  0.00     0.076 C 
ATOM      7  C8  UNL d   1      -1.106  -1.689   4.005  0.00  0.00     0.001 A 
ENDROOT
BRANCH   1   8
ATOM      8  C1  UNL d   1       1.352  -1.781   4.578  0.00  0.00     0.053 C 
ATOM      9  C   UNL d   1       1.770  -0.748   5.612  0.00  0.00     0.018 C 
ENDBRANCH   1   8
TORSDOF 1
ENDMDL
