MODEL 1
REMARK minimizedAffinity 0.698801577
REMARK minimizedRMSD -1
REMARK  1 active torsions:
REMARK  status: ('A' for Active; 'I' for Inactive)
REMARK    1  A    between atoms: C1_2  and  C2_3 
ROOT
ATOM      1  C2  UNL d   1       0.243  -1.028   3.191  0.00  0.00    -0.073 A 
ATOM      2  C3  UNL d   1       1.265  -0.886   2.245  0.00  0.00    -0.002 A 
ATOM      3  C4  UNL d   1       1.038  -0.181   1.063  0.00  0.00     0.004 A 
ATOM      4  C5  UNL d   1      -0.209   0.394   0.816  0.00  0.00    -0.004 A 
ATOM      5  C6  UNL d   1      -1.239   0.273   1.754  0.00  0.00    -0.075 A 
ATOM      6  C7  UNL d   1      -2.587   0.883   1.503  0.00  0.00     0.076 C 
ATOM      7  C8  UNL d   1      -1.005  -0.439   2.938  0.00  0.00     0.001 A 
ENDROOT
BRANCH   1   8
ATOM      8  C1  UNL d   1       0.485  -1.783   4.472  0.00  0.00     0.053 C 
ATOM      9  C   UNL d   1       1.965  -2.033   4.716  0.00  0.00     0.018 C 
ENDBRANCH   1   8
TORSDOF 1
ENDMDL
