MODEL 1
REMARK minimizedAffinity -0.0800889954
REMARK minimizedRMSD -1
REMARK  1 active torsions:
REMARK  status: ('A' for Active; 'I' for Inactive)
REMARK    1  A    between atoms: C1_2  and  C2_3 
ROOT
ATOM      1  C2  UNL d   1      -0.573  -1.465   4.019  0.00  0.00    -0.073 A 
ATOM      2  C3  UNL d   1      -1.592  -2.233   4.593  0.00  0.00    -0.002 A 
ATOM      3  C4  UNL d   1      -2.900  -2.137   4.116  0.00  0.00     0.004 A 
ATOM      4  C5  UNL d   1      -3.201  -1.279   3.058  0.00  0.00    -0.004 A 
ATOM      5  C6  UNL d   1      -2.193  -0.513   2.464  0.00  0.00    -0.075 A 
ATOM      6  C7  UNL d   1      -2.500   0.417   1.326  0.00  0.00     0.076 C 
ATOM      7  C8  UNL d   1      -0.883  -0.612   2.950  0.00  0.00     0.001 A 
ENDROOT
BRANCH   1   8
ATOM      8  C1  UNL d   1       0.843  -1.570   4.526  0.00  0.00     0.053 C 
ATOM      9  C   UNL d   1       1.860  -1.222   3.452  0.00  0.00     0.018 C 
ENDBRANCH   1   8
TORSDOF 1
ENDMDL
