MODEL 1
REMARK minimizedAffinity -0.142932802
REMARK minimizedRMSD -1
REMARK  2 active torsions:
REMARK  status: ('A' for Active; 'I' for Inactive)
REMARK    1  A    between atoms: C1_2  and  C2_3 
REMARK    2  A    between atoms: C2_3  and  C3_4 
ROOT
ATOM      1  C3  UNL d   1      -0.785   0.263  -0.185  0.00  0.00    -0.075 A 
ATOM      2  C4  UNL d   1      -0.098   1.160   0.645  0.00  0.00     0.002 A 
ATOM      3  C5  UNL d   1      -0.773   1.857   1.647  0.00  0.00     0.002 A 
ATOM      4  C6  UNL d   1      -2.143   1.676   1.825  0.00  0.00    -0.004 A 
ATOM      5  C7  UNL d   1      -2.839   0.799   0.995  0.00  0.00     0.002 A 
ATOM      6  C8  UNL d   1      -2.165   0.097  -0.006  0.00  0.00     0.002 A 
ENDROOT
BRANCH   1   7
ATOM      7  C2  UNL d   1      -0.055  -0.517  -1.252  0.00  0.00     0.056 C 
BRANCH   7   8
ATOM      8  C1  UNL d   1       0.716  -1.730  -0.721  0.00  0.00     0.007 C 
ATOM      9  C   UNL d   1      -0.166  -2.722   0.025  0.00  0.00     0.009 C 
ENDBRANCH   7   8
ENDBRANCH   1   7
TORSDOF 2
ENDMDL
