MODEL 1
REMARK minimizedAffinity -3.39141273
REMARK minimizedRMSD -1
REMARK  2 active torsions:
REMARK  status: ('A' for Active; 'I' for Inactive)
REMARK    1  A    between atoms: C1_2  and  C2_3 
REMARK    2  A    between atoms: C2_3  and  C3_4 
ROOT
ATOM      1  C3  UNL d   1       1.160  -0.348   0.568  0.00  0.00    -0.075 A 
ATOM      2  C4  UNL d   1      -0.001  -0.953   0.067  0.00  0.00     0.002 A 
ATOM      3  C5  UNL d   1      -1.056  -0.175  -0.410  0.00  0.00     0.002 A 
ATOM      4  C6  UNL d   1      -0.969   1.215  -0.383  0.00  0.00    -0.004 A 
ATOM      5  C7  UNL d   1       0.173   1.827   0.128  0.00  0.00     0.002 A 
ATOM      6  C8  UNL d   1       1.233   1.051   0.601  0.00  0.00     0.002 A 
ENDROOT
BRANCH   1   7
ATOM      7  C2  UNL d   1       2.318  -1.184   1.058  0.00  0.00     0.056 C 
BRANCH   7   8
ATOM      8  C1  UNL d   1       3.479  -1.286   0.063  0.00  0.00     0.007 C 
ATOM      9  C   UNL d   1       3.050  -1.778  -1.313  0.00  0.00     0.009 C 
ENDBRANCH   7   8
ENDBRANCH   1   7
TORSDOF 2
ENDMDL
