MODEL 1
REMARK minimizedAffinity 2.03435564
REMARK minimizedRMSD -1
REMARK  2 active torsions:
REMARK  status: ('A' for Active; 'I' for Inactive)
REMARK    1  A    between atoms: C1_2  and  C2_3 
REMARK    2  A    between atoms: C2_3  and  C3_4 
ROOT
ATOM      1  C3  UNL d   1       1.138   0.097  -0.492  0.00  0.00    -0.075 A 
ATOM      2  C4  UNL d   1      -0.225  -0.095  -0.760  0.00  0.00     0.002 A 
ATOM      3  C5  UNL d   1      -0.731  -1.378  -0.974  0.00  0.00     0.002 A 
ATOM      4  C6  UNL d   1       0.120  -2.481  -0.934  0.00  0.00    -0.004 A 
ATOM      5  C7  UNL d   1       1.478  -2.300  -0.685  0.00  0.00     0.002 A 
ATOM      6  C8  UNL d   1       1.986  -1.018  -0.466  0.00  0.00     0.002 A 
ENDROOT
BRANCH   1   7
ATOM      7  C2  UNL d   1       1.687   1.480  -0.230  0.00  0.00     0.056 C 
BRANCH   7   8
ATOM      8  C1  UNL d   1       0.666   2.452   0.370  0.00  0.00     0.007 C 
ATOM      9  C   UNL d   1      -0.172   1.833   1.481  0.00  0.00     0.009 C 
ENDBRANCH   7   8
ENDBRANCH   1   7
TORSDOF 2
ENDMDL
