MODEL 1
REMARK minimizedAffinity -4.12449646
REMARK minimizedRMSD -1
REMARK  2 active torsions:
REMARK  status: ('A' for Active; 'I' for Inactive)
REMARK    1  A    between atoms: C1_2  and  C2_3 
REMARK    2  A    between atoms: C2_3  and  C3_4 
ROOT
ATOM      1  C3  UNL d   1      -1.454   0.286  -0.039  0.00  0.00    -0.075 A 
ATOM      2  C4  UNL d   1      -0.679   0.094   1.114  0.00  0.00     0.002 A 
ATOM      3  C5  UNL d   1       0.511  -0.633   1.055  0.00  0.00     0.002 A 
ATOM      4  C6  UNL d   1       0.935  -1.183  -0.153  0.00  0.00    -0.004 A 
ATOM      5  C7  UNL d   1       0.165  -1.012  -1.301  0.00  0.00     0.002 A 
ATOM      6  C8  UNL d   1      -1.024  -0.282  -1.245  0.00  0.00     0.002 A 
ENDROOT
BRANCH   1   7
ATOM      7  C2  UNL d   1      -2.727   1.096   0.013  0.00  0.00     0.056 C 
BRANCH   7   8
ATOM      8  C1  UNL d   1      -3.218   1.398   1.433  0.00  0.00     0.007 C 
ATOM      9  C   UNL d   1      -4.253   0.400   1.935  0.00  0.00     0.009 C 
ENDBRANCH   7   8
ENDBRANCH   1   7
TORSDOF 2
ENDMDL
