MODEL 1
REMARK minimizedAffinity 13.4913568
REMARK minimizedRMSD -1
REMARK  0 active torsions:
REMARK  status: ('A' for Active; 'I' for Inactive)
ROOT
ATOM      1  O1  BZF d   1      -2.631  -4.846  -2.930  0.00  0.00    -0.204 OA
ATOM      2  C2  BZF d   1      -2.026  -5.658  -1.989  0.00  0.00     0.174 A 
ATOM      3  C3  BZF d   1      -2.762  -5.712  -0.860  0.00  0.00    -0.012 A 
ATOM      4  C3A BZF d   1      -3.943  -4.956  -1.144  0.00  0.00    -0.107 A 
ATOM      5  C4  BZF d   1      -5.062  -4.656  -0.421  0.00  0.00     0.055 A 
ATOM      6  C5  BZF d   1      -5.997  -3.833  -0.963  0.00  0.00    -0.016 A 
ATOM      7  C6  BZF d   1      -5.844  -3.289  -2.222  0.00  0.00     0.022 A 
ATOM      8  C7  BZF d   1      -4.754  -3.562  -2.979  0.00  0.00     0.029 A 
ATOM      9  C7A BZF d   1      -3.822  -4.419  -2.447  0.00  0.00     0.058 A 
ENDROOT
TORSDOF 0
ENDMDL
