MODEL 1
REMARK minimizedAffinity -3.28563499
REMARK minimizedRMSD -1
REMARK  0 active torsions:
REMARK  status: ('A' for Active; 'I' for Inactive)
ROOT
ATOM      1  O1  BZF d   1      -3.396   4.026  -5.870  0.00  0.00    -0.204 OA
ATOM      2  C2  BZF d   1      -3.644   2.674  -6.000  0.00  0.00     0.174 A 
ATOM      3  C3  BZF d   1      -4.555   2.265  -5.093  0.00  0.00    -0.012 A 
ATOM      4  C3A BZF d   1      -4.967   3.454  -4.412  0.00  0.00    -0.107 A 
ATOM      5  C4  BZF d   1      -5.864   3.700  -3.412  0.00  0.00     0.055 A 
ATOM      6  C5  BZF d   1      -5.977   4.962  -2.922  0.00  0.00    -0.016 A 
ATOM      7  C6  BZF d   1      -5.206   6.000  -3.403  0.00  0.00     0.022 A 
ATOM      8  C7  BZF d   1      -4.305   5.805  -4.397  0.00  0.00     0.029 A 
ATOM      9  C7A BZF d   1      -4.212   4.538  -4.917  0.00  0.00     0.058 A 
ENDROOT
TORSDOF 0
ENDMDL
