MODEL 1
REMARK minimizedAffinity -4.17235994
REMARK minimizedRMSD -1
REMARK  0 active torsions:
REMARK  status: ('A' for Active; 'I' for Inactive)
ROOT
ATOM      1  O1  BZF d   1      -3.752   4.569  -5.014  0.00  0.00    -0.204 OA
ATOM      2  C2  BZF d   1      -4.306   5.831  -5.110  0.00  0.00     0.174 A 
ATOM      3  C3  BZF d   1      -5.278   5.998  -4.190  0.00  0.00    -0.012 A 
ATOM      4  C3A BZF d   1      -5.271   4.797  -3.413  0.00  0.00    -0.107 A 
ATOM      5  C4  BZF d   1      -5.999   4.369  -2.339  0.00  0.00     0.055 A 
ATOM      6  C5  BZF d   1      -5.796   3.113  -1.862  0.00  0.00    -0.016 A 
ATOM      7  C6  BZF d   1      -4.878   2.257  -2.436  0.00  0.00     0.022 A 
ATOM      8  C7  BZF d   1      -4.130   2.639  -3.500  0.00  0.00     0.029 A 
ATOM      9  C7A BZF d   1      -4.309   3.919  -3.964  0.00  0.00     0.058 A 
ENDROOT
TORSDOF 0
ENDMDL
