MODEL 1
REMARK minimizedAffinity 18.1856842
REMARK minimizedRMSD -1
REMARK  0 active torsions:
REMARK  status: ('A' for Active; 'I' for Inactive)
ROOT
ATOM      1  O1  BZF d   1       1.625   4.597  -5.984  0.00  0.00    -0.204 OA
ATOM      2  C2  BZF d   1       2.177   3.397  -5.579  0.00  0.00     0.174 A 
ATOM      3  C3  BZF d   1       1.236   2.596  -5.039  0.00  0.00    -0.012 A 
ATOM      4  C3A BZF d   1       0.003   3.304  -5.196  0.00  0.00    -0.107 A 
ATOM      5  C4  BZF d   1      -1.292   3.018  -4.872  0.00  0.00     0.055 A 
ATOM      6  C5  BZF d   1      -2.251   3.955  -5.094  0.00  0.00    -0.016 A 
ATOM      7  C6  BZF d   1      -1.950   5.189  -5.633  0.00  0.00     0.022 A 
ATOM      8  C7  BZF d   1      -0.680   5.516  -5.976  0.00  0.00     0.029 A 
ATOM      9  C7A BZF d   1       0.286   4.559  -5.783  0.00  0.00     0.058 A 
ENDROOT
TORSDOF 0
ENDMDL
