MODEL 1
REMARK minimizedAffinity 0.220706776
REMARK minimizedRMSD -1
REMARK  0 active torsions:
REMARK  status: ('A' for Active; 'I' for Inactive)
ROOT
ATOM      1  O1  BZF d   1      -4.061   4.433  -2.123  0.00  0.00    -0.204 OA
ATOM      2  C2  BZF d   1      -5.100   4.879  -1.329  0.00  0.00     0.174 A 
ATOM      3  C3  BZF d   1      -5.988   5.586  -2.057  0.00  0.00    -0.012 A 
ATOM      4  C3A BZF d   1      -5.521   5.503  -3.406  0.00  0.00    -0.107 A 
ATOM      5  C4  BZF d   1      -5.988   5.991  -4.593  0.00  0.00     0.055 A 
ATOM      6  C5  BZF d   1      -5.256   5.794  -5.722  0.00  0.00    -0.016 A 
ATOM      7  C6  BZF d   1      -4.053   5.120  -5.699  0.00  0.00     0.022 A 
ATOM      8  C7  BZF d   1      -3.552   4.613  -4.546  0.00  0.00     0.029 A 
ATOM      9  C7A BZF d   1      -4.304   4.782  -3.409  0.00  0.00     0.058 A 
ENDROOT
TORSDOF 0
ENDMDL
