MODEL 1
REMARK minimizedAffinity -2.34546232
REMARK minimizedRMSD -1
REMARK  0 active torsions:
REMARK  status: ('A' for Active; 'I' for Inactive)
ROOT
ATOM      1  O1  BZF d   1      -5.597   2.189  -3.792  0.00  0.00    -0.204 OA
ATOM      2  C2  BZF d   1      -5.968   2.394  -2.477  0.00  0.00     0.174 A 
ATOM      3  C3  BZF d   1      -5.999   3.711  -2.188  0.00  0.00    -0.012 A 
ATOM      4  C3A BZF d   1      -5.714   4.374  -3.423  0.00  0.00    -0.107 A 
ATOM      5  C4  BZF d   1      -5.619   5.688  -3.783  0.00  0.00     0.055 A 
ATOM      6  C5  BZF d   1      -5.254   6.000  -5.054  0.00  0.00    -0.016 A 
ATOM      7  C6  BZF d   1      -4.971   5.025  -5.988  0.00  0.00     0.022 A 
ATOM      8  C7  BZF d   1      -5.057   3.708  -5.679  0.00  0.00     0.029 A 
ATOM      9  C7A BZF d   1      -5.458   3.389  -4.405  0.00  0.00     0.058 A 
ENDROOT
TORSDOF 0
ENDMDL
