MODEL 1
REMARK minimizedAffinity 10.6115236
REMARK minimizedRMSD -1
REMARK  0 active torsions:
REMARK  status: ('A' for Active; 'I' for Inactive)
ROOT
ATOM      1  O1  BZF d   1      -1.907  -6.000   0.300  0.00  0.00    -0.204 OA
ATOM      2  C2  BZF d   1      -2.935  -5.409  -0.409  0.00  0.00     0.174 A 
ATOM      3  C3  BZF d   1      -2.449  -4.653  -1.415  0.00  0.00    -0.012 A 
ATOM      4  C3A BZF d   1      -1.033  -4.853  -1.386  0.00  0.00    -0.107 A 
ATOM      5  C4  BZF d   1      -0.002  -4.382  -2.149  0.00  0.00     0.055 A 
ATOM      6  C5  BZF d   1       1.272  -4.711  -1.813  0.00  0.00    -0.016 A 
ATOM      7  C6  BZF d   1       1.553  -5.504  -0.719  0.00  0.00     0.022 A 
ATOM      8  C7  BZF d   1       0.564  -5.999   0.064  0.00  0.00     0.029 A 
ATOM      9  C7A BZF d   1      -0.727  -5.695  -0.292  0.00  0.00     0.058 A 
ENDROOT
TORSDOF 0
ENDMDL
