MODEL 1
REMARK minimizedAffinity -1.03256309
REMARK minimizedRMSD -1
REMARK  0 active torsions:
REMARK  status: ('A' for Active; 'I' for Inactive)
ROOT
ATOM      1  O1  BZF d   1       1.863   2.705  -4.079  0.00  0.00    -0.204 OA
ATOM      2  C2  BZF d   1       1.810   2.596  -2.702  0.00  0.00     0.174 A 
ATOM      3  C3  BZF d   1       2.912   1.979  -2.229  0.00  0.00    -0.012 A 
ATOM      4  C3A BZF d   1       3.745   1.766  -3.373  0.00  0.00    -0.107 A 
ATOM      5  C4  BZF d   1       4.980   1.209  -3.544  0.00  0.00     0.055 A 
ATOM      6  C5  BZF d   1       5.481   1.088  -4.802  0.00  0.00    -0.016 A 
ATOM      7  C6  BZF d   1       4.773   1.507  -5.909  0.00  0.00     0.022 A 
ATOM      8  C7  BZF d   1       3.546   2.070  -5.789  0.00  0.00     0.029 A 
ATOM      9  C7A BZF d   1       3.051   2.224  -4.517  0.00  0.00     0.058 A 
ENDROOT
TORSDOF 0
ENDMDL
