MODEL 1
REMARK minimizedAffinity 2.36087799
REMARK minimizedRMSD -1
REMARK  0 active torsions:
REMARK  status: ('A' for Active; 'I' for Inactive)
ROOT
ATOM      1  O1  BZF d   1      -1.196  -2.693  -1.164  0.00  0.00    -0.204 OA
ATOM      2  C2  BZF d   1      -2.490  -3.173  -1.227  0.00  0.00     0.174 A 
ATOM      3  C3  BZF d   1      -3.234  -2.676  -0.218  0.00  0.00    -0.012 A 
ATOM      4  C3A BZF d   1      -2.374  -1.762   0.469  0.00  0.00    -0.107 A 
ATOM      5  C4  BZF d   1      -2.544  -0.945   1.551  0.00  0.00     0.055 A 
ATOM      6  C5  BZF d   1      -1.483  -0.233   2.014  0.00  0.00    -0.016 A 
ATOM      7  C6  BZF d   1      -0.239  -0.318   1.424  0.00  0.00     0.022 A 
ATOM      8  C7  BZF d   1      -0.023  -1.110   0.346  0.00  0.00     0.029 A 
ATOM      9  C7A BZF d   1      -1.101  -1.806  -0.145  0.00  0.00     0.058 A 
ENDROOT
TORSDOF 0
ENDMDL
