MODEL 1
REMARK minimizedAffinity 1.26781511
REMARK minimizedRMSD -1
REMARK  0 active torsions:
REMARK  status: ('A' for Active; 'I' for Inactive)
ROOT
ATOM      1  O1  BZF d   1      -5.978   3.808  -1.181  0.00  0.00    -0.204 OA
ATOM      2  C2  BZF d   1      -5.997   3.265  -2.451  0.00  0.00     0.174 A 
ATOM      3  C3  BZF d   1      -5.951   1.918  -2.396  0.00  0.00    -0.012 A 
ATOM      4  C3A BZF d   1      -5.993   1.596  -1.003  0.00  0.00    -0.107 A 
ATOM      5  C4  BZF d   1      -5.993   0.419  -0.311  0.00  0.00     0.055 A 
ATOM      6  C5  BZF d   1      -5.966   0.452   1.048  0.00  0.00    -0.016 A 
ATOM      7  C6  BZF d   1      -5.935   1.642   1.745  0.00  0.00     0.022 A 
ATOM      8  C7  BZF d   1      -5.939   2.835   1.102  0.00  0.00     0.029 A 
ATOM      9  C7A BZF d   1      -5.999   2.805  -0.270  0.00  0.00     0.058 A 
ENDROOT
TORSDOF 0
ENDMDL
