MODEL 1
REMARK minimizedAffinity 17.3168182
REMARK minimizedRMSD -1
REMARK  0 active torsions:
REMARK  status: ('A' for Active; 'I' for Inactive)
ROOT
ATOM      1  O1  BZF d   1      -2.468  -2.572  -0.836  0.00  0.00    -0.204 OA
ATOM      2  C2  BZF d   1      -2.329  -3.863  -0.361  0.00  0.00     0.174 A 
ATOM      3  C3  BZF d   1      -2.264  -3.872   0.986  0.00  0.00    -0.012 A 
ATOM      4  C3A BZF d   1      -2.462  -2.512   1.382  0.00  0.00    -0.107 A 
ATOM      5  C4  BZF d   1      -2.519  -1.886   2.594  0.00  0.00     0.055 A 
ATOM      6  C5  BZF d   1      -2.651  -0.534   2.634  0.00  0.00    -0.016 A 
ATOM      7  C6  BZF d   1      -2.724   0.223   1.483  0.00  0.00     0.022 A 
ATOM      8  C7  BZF d   1      -2.676  -0.354   0.257  0.00  0.00     0.029 A 
ATOM      9  C7A BZF d   1      -2.576  -1.723   0.214  0.00  0.00     0.058 A 
ENDROOT
TORSDOF 0
ENDMDL
