MODEL 1
REMARK minimizedAffinity 5.99579382
REMARK minimizedRMSD -1
REMARK  0 active torsions:
REMARK  status: ('A' for Active; 'I' for Inactive)
ROOT
ATOM      1  O1  BZF d   1       2.037   5.716  -5.981  0.00  0.00    -0.204 OA
ATOM      2  C2  BZF d   1       1.192   4.624  -5.964  0.00  0.00     0.174 A 
ATOM      3  C3  BZF d   1       1.896   3.474  -5.999  0.00  0.00    -0.012 A 
ATOM      4  C3A BZF d   1       3.270   3.871  -5.947  0.00  0.00    -0.107 A 
ATOM      5  C4  BZF d   1       4.447   3.180  -5.935  0.00  0.00     0.055 A 
ATOM      6  C5  BZF d   1       5.618   3.870  -5.955  0.00  0.00    -0.016 A 
ATOM      7  C6  BZF d   1       5.648   5.249  -5.992  0.00  0.00     0.022 A 
ATOM      8  C7  BZF d   1       4.506   5.978  -6.000  0.00  0.00     0.029 A 
ATOM      9  C7A BZF d   1       3.321   5.285  -5.947  0.00  0.00     0.058 A 
ENDROOT
TORSDOF 0
ENDMDL
