MODEL 1
REMARK minimizedAffinity 18.4881439
REMARK minimizedRMSD -1
REMARK  0 active torsions:
REMARK  status: ('A' for Active; 'I' for Inactive)
ROOT
ATOM      1  O1  BZF d   1      -0.830  -5.668  -3.005  0.00  0.00    -0.204 OA
ATOM      2  C2  BZF d   1      -1.308  -5.997  -4.259  0.00  0.00     0.174 A 
ATOM      3  C3  BZF d   1      -2.644  -5.825  -4.321  0.00  0.00    -0.012 A 
ATOM      4  C3A BZF d   1      -3.012  -5.273  -3.054  0.00  0.00    -0.107 A 
ATOM      5  C4  BZF d   1      -4.201  -4.870  -2.514  0.00  0.00     0.055 A 
ATOM      6  C5  BZF d   1      -4.230  -4.445  -1.224  0.00  0.00    -0.016 A 
ATOM      7  C6  BZF d   1      -3.093  -4.414  -0.444  0.00  0.00     0.022 A 
ATOM      8  C7  BZF d   1      -1.890  -4.798  -0.936  0.00  0.00     0.029 A 
ATOM      9  C7A BZF d   1      -1.851  -5.198  -2.250  0.00  0.00     0.058 A 
ENDROOT
TORSDOF 0
ENDMDL
