MODEL 1
REMARK minimizedAffinity 5.88087511
REMARK minimizedRMSD -1
REMARK  0 active torsions:
REMARK  status: ('A' for Active; 'I' for Inactive)
ROOT
ATOM      1  O1  BZF d   1      -0.396   4.542  -3.840  0.00  0.00    -0.204 OA
ATOM      2  C2  BZF d   1       0.393   4.688  -4.965  0.00  0.00     0.174 A 
ATOM      3  C3  BZF d   1      -0.328   5.177  -5.995  0.00  0.00    -0.012 A 
ATOM      4  C3A BZF d   1      -1.628   5.434  -5.455  0.00  0.00    -0.107 A 
ATOM      5  C4  BZF d   1      -2.781   5.941  -5.984  0.00  0.00     0.055 A 
ATOM      6  C5  BZF d   1      -3.896   5.995  -5.208  0.00  0.00    -0.016 A 
ATOM      7  C6  BZF d   1      -3.895   5.546  -3.904  0.00  0.00     0.022 A 
ATOM      8  C7  BZF d   1      -2.774   5.040  -3.334  0.00  0.00     0.029 A 
ATOM      9  C7A BZF d   1      -1.638   5.015  -4.105  0.00  0.00     0.058 A 
ENDROOT
TORSDOF 0
ENDMDL
