MODEL 1
REMARK minimizedAffinity 10.4818096
REMARK minimizedRMSD -1
REMARK  0 active torsions:
REMARK  status: ('A' for Active; 'I' for Inactive)
ROOT
ATOM      1  O1  BZF d   1       4.508   3.730  -0.555  0.00  0.00    -0.204 OA
ATOM      2  C2  BZF d   1       4.022   4.880  -1.147  0.00  0.00     0.174 A 
ATOM      3  C3  BZF d   1       4.141   5.934  -0.314  0.00  0.00    -0.012 A 
ATOM      4  C3A BZF d   1       4.824   5.429   0.837  0.00  0.00    -0.107 A 
ATOM      5  C4  BZF d   1       5.246   5.999   2.004  0.00  0.00     0.055 A 
ATOM      6  C5  BZF d   1       5.817   5.214   2.955  0.00  0.00    -0.016 A 
ATOM      7  C6  BZF d   1       5.976   3.855   2.775  0.00  0.00     0.022 A 
ATOM      8  C7  BZF d   1       5.576   3.245   1.632  0.00  0.00     0.029 A 
ATOM      9  C7A BZF d   1       5.029   4.041   0.656  0.00  0.00     0.058 A 
ENDROOT
TORSDOF 0
ENDMDL
