MODEL 1
REMARK minimizedAffinity 4.82620811
REMARK minimizedRMSD -1
REMARK  0 active torsions:
REMARK  status: ('A' for Active; 'I' for Inactive)
ROOT
ATOM      1  O1  BZF d   1      -5.324   2.680  -2.377  0.00  0.00    -0.204 OA
ATOM      2  C2  BZF d   1      -5.636   3.998  -2.648  0.00  0.00     0.174 A 
ATOM      3  C3  BZF d   1      -5.999   4.644  -1.521  0.00  0.00    -0.012 A 
ATOM      4  C3A BZF d   1      -5.820   3.693  -0.467  0.00  0.00    -0.107 A 
ATOM      5  C4  BZF d   1      -6.000   3.746   0.885  0.00  0.00     0.055 A 
ATOM      6  C5  BZF d   1      -5.805   2.621   1.622  0.00  0.00    -0.016 A 
ATOM      7  C6  BZF d   1      -5.437   1.426   1.039  0.00  0.00     0.022 A 
ATOM      8  C7  BZF d   1      -5.242   1.326  -0.299  0.00  0.00     0.029 A 
ATOM      9  C7A BZF d   1      -5.406   2.470  -1.042  0.00  0.00     0.058 A 
ENDROOT
TORSDOF 0
ENDMDL
