MODEL 1
REMARK minimizedAffinity 13.0167751
REMARK minimizedRMSD -1
REMARK  0 active torsions:
REMARK  status: ('A' for Active; 'I' for Inactive)
ROOT
ATOM      1  O1  BZF d   1      -1.936   4.819  -4.467  0.00  0.00    -0.204 OA
ATOM      2  C2  BZF d   1      -1.867   5.956  -5.249  0.00  0.00     0.174 A 
ATOM      3  C3  BZF d   1      -0.702   6.000  -5.927  0.00  0.00    -0.012 A 
ATOM      4  C3A BZF d   1      -0.039   4.770  -5.616  0.00  0.00    -0.107 A 
ATOM      5  C4  BZF d   1       1.152   4.223  -5.999  0.00  0.00     0.055 A 
ATOM      6  C5  BZF d   1       1.539   3.038  -5.457  0.00  0.00    -0.016 A 
ATOM      7  C6  BZF d   1       0.764   2.378  -4.527  0.00  0.00     0.022 A 
ATOM      8  C7  BZF d   1      -0.428   2.879  -4.120  0.00  0.00     0.029 A 
ATOM      9  C7A BZF d   1      -0.837   4.059  -4.690  0.00  0.00     0.058 A 
ENDROOT
TORSDOF 0
ENDMDL
