MODEL 1
REMARK minimizedAffinity 2.64593649
REMARK minimizedRMSD -1
REMARK  0 active torsions:
REMARK  status: ('A' for Active; 'I' for Inactive)
ROOT
ATOM      1  O1  BZF d   1      -2.220   5.941  -5.958  0.00  0.00    -0.204 OA
ATOM      2  C2  BZF d   1      -1.224   4.984  -5.951  0.00  0.00     0.174 A 
ATOM      3  C3  BZF d   1      -1.752   3.744  -5.907  0.00  0.00    -0.012 A 
ATOM      4  C3A BZF d   1      -3.168   3.935  -5.978  0.00  0.00    -0.107 A 
ATOM      5  C4  BZF d   1      -4.231   3.078  -5.993  0.00  0.00     0.055 A 
ATOM      6  C5  BZF d   1      -5.491   3.589  -5.995  0.00  0.00    -0.016 A 
ATOM      7  C6  BZF d   1      -5.723   4.948  -5.977  0.00  0.00     0.022 A 
ATOM      8  C7  BZF d   1      -4.700   5.838  -5.967  0.00  0.00     0.029 A 
ATOM      9  C7A BZF d   1      -3.426   5.325  -5.999  0.00  0.00     0.058 A 
ENDROOT
TORSDOF 0
ENDMDL
