MODEL 1
REMARK minimizedAffinity 9.79300308
REMARK minimizedRMSD -1
REMARK  0 active torsions:
REMARK  status: ('A' for Active; 'I' for Inactive)
ROOT
ATOM      1  O1  BZF d   1       3.515  -2.036   0.265  0.00  0.00    -0.204 OA
ATOM      2  C2  BZF d   1       3.767  -2.304  -1.066  0.00  0.00     0.174 A 
ATOM      3  C3  BZF d   1       2.722  -1.933  -1.834  0.00  0.00    -0.012 A 
ATOM      4  C3A BZF d   1       1.795  -1.315  -0.936  0.00  0.00    -0.107 A 
ATOM      5  C4  BZF d   1       0.573  -0.730  -1.105  0.00  0.00     0.055 A 
ATOM      6  C5  BZF d   1      -0.104  -0.289  -0.012  0.00  0.00    -0.016 A 
ATOM      7  C6  BZF d   1       0.408  -0.421   1.262  0.00  0.00     0.022 A 
ATOM      8  C7  BZF d   1       1.619  -0.989   1.478  0.00  0.00     0.029 A 
ATOM      9  C7A BZF d   1       2.321  -1.406   0.373  0.00  0.00     0.058 A 
ENDROOT
TORSDOF 0
ENDMDL
