MODEL 1
REMARK minimizedAffinity 8.01096916
REMARK minimizedRMSD -1
REMARK  0 active torsions:
REMARK  status: ('A' for Active; 'I' for Inactive)
ROOT
ATOM      1  O1  BZF d   1      -0.765   1.965   1.141  0.00  0.00    -0.204 OA
ATOM      2  C2  BZF d   1       0.124   2.190   0.109  0.00  0.00     0.174 A 
ATOM      3  C3  BZF d   1       0.692   1.035  -0.295  0.00  0.00    -0.012 A 
ATOM      4  C3A BZF d   1       0.052   0.013   0.475  0.00  0.00    -0.107 A 
ATOM      5  C4  BZF d   1       0.176  -1.347   0.516  0.00  0.00     0.055 A 
ATOM      6  C5  BZF d   1      -0.543  -2.047   1.433  0.00  0.00    -0.016 A 
ATOM      7  C6  BZF d   1      -1.388  -1.421   2.325  0.00  0.00     0.022 A 
ATOM      8  C7  BZF d   1      -1.548  -0.076   2.319  0.00  0.00     0.029 A 
ATOM      9  C7A BZF d   1      -0.848   0.632   1.372  0.00  0.00     0.058 A 
ENDROOT
TORSDOF 0
ENDMDL
