MODEL 1
REMARK minimizedAffinity 12.9837427
REMARK minimizedRMSD -1
REMARK  1 active torsions:
REMARK  status: ('A' for Active; 'I' for Inactive)
REMARK    1  A    between atoms: C1_2  and  C2_3 
ROOT
ATOM      1  C2  UNL d   1       4.609   4.817  -2.023  0.00  0.00    -0.081 A 
ATOM      2  C3  UNL d   1       3.853   5.992  -2.119  0.00  0.00     0.006 A 
ATOM      3  C4  UNL d   1       2.612   5.984  -2.762  0.00  0.00     0.002 A 
ATOM      4  C5  UNL d   1       2.104   4.802  -3.311  0.00  0.00    -0.080 A 
ATOM      5  C6  UNL d   1       0.761   4.774  -3.977  0.00  0.00     0.076 C 
ATOM      6  C7  UNL d   1       2.868   3.633  -3.231  0.00  0.00     0.002 A 
ATOM      7  C8  UNL d   1       4.109   3.640  -2.589  0.00  0.00     0.006 A 
ENDROOT
BRANCH   1   8
ATOM      8  C1  UNL d   1       5.918   4.808  -1.275  0.00  0.00     0.054 C 
ATOM      9  C   UNL d   1       5.999   3.626  -0.318  0.00  0.00     0.018 C 
ENDBRANCH   1   8
TORSDOF 1
ENDMDL
