MODEL 1
REMARK minimizedAffinity 8.38828564
REMARK minimizedRMSD -1
REMARK  1 active torsions:
REMARK  status: ('A' for Active; 'I' for Inactive)
REMARK    1  A    between atoms: C1_2  and  C2_3 
ROOT
ATOM      1  C2  UNL d   1      -3.819  -3.109   2.804  0.00  0.00    -0.081 A 
ATOM      2  C3  UNL d   1      -4.153  -2.827   4.134  0.00  0.00     0.006 A 
ATOM      3  C4  UNL d   1      -4.870  -3.752   4.896  0.00  0.00     0.002 A 
ATOM      4  C5  UNL d   1      -5.257  -4.978   4.344  0.00  0.00    -0.080 A 
ATOM      5  C6  UNL d   1      -6.000  -5.993   5.160  0.00  0.00     0.076 C 
ATOM      6  C7  UNL d   1      -4.938  -5.253   3.010  0.00  0.00     0.002 A 
ATOM      7  C8  UNL d   1      -4.222  -4.328   2.247  0.00  0.00     0.006 A 
ENDROOT
BRANCH   1   8
ATOM      8  C1  UNL d   1      -2.990  -2.140   1.999  0.00  0.00     0.054 C 
ATOM      9  C   UNL d   1      -1.856  -1.559   2.831  0.00  0.00     0.018 C 
ENDBRANCH   1   8
TORSDOF 1
ENDMDL
