MODEL 1
REMARK minimizedAffinity 12.9645948
REMARK minimizedRMSD -1
REMARK  1 active torsions:
REMARK  status: ('A' for Active; 'I' for Inactive)
REMARK    1  A    between atoms: C1_2  and  C2_3 
ROOT
ATOM      1  C2  UNL d   1      -3.298  -2.537   2.067  0.00  0.00    -0.081 A 
ATOM      2  C3  UNL d   1      -3.284  -1.214   2.524  0.00  0.00     0.006 A 
ATOM      3  C4  UNL d   1      -2.225  -0.363   2.198  0.00  0.00     0.002 A 
ATOM      4  C5  UNL d   1      -1.168  -0.818   1.403  0.00  0.00    -0.080 A 
ATOM      5  C6  UNL d   1      -0.041   0.094   1.020  0.00  0.00     0.076 C 
ATOM      6  C7  UNL d   1      -1.173  -2.145   0.961  0.00  0.00     0.002 A 
ATOM      7  C8  UNL d   1      -2.231  -2.997   1.288  0.00  0.00     0.006 A 
ENDROOT
BRANCH   1   8
ATOM      8  C1  UNL d   1      -4.470  -3.438   2.364  0.00  0.00     0.054 C 
ATOM      9  C   UNL d   1      -5.713  -2.997   1.604  0.00  0.00     0.018 C 
ENDBRANCH   1   8
TORSDOF 1
ENDMDL
