MODEL 1
REMARK minimizedAffinity 12.3277082
REMARK minimizedRMSD -1
REMARK  1 active torsions:
REMARK  status: ('A' for Active; 'I' for Inactive)
REMARK    1  A    between atoms: C1_2  and  C2_3 
ROOT
ATOM      1  C2  UNL d   1      -3.403  -2.402   2.121  0.00  0.00    -0.081 A 
ATOM      2  C3  UNL d   1      -2.502  -3.158   1.361  0.00  0.00     0.006 A 
ATOM      3  C4  UNL d   1      -1.208  -2.688   1.124  0.00  0.00     0.002 A 
ATOM      4  C5  UNL d   1      -0.791  -1.460   1.648  0.00  0.00    -0.080 A 
ATOM      5  C6  UNL d   1       0.605  -0.958   1.426  0.00  0.00     0.076 C 
ATOM      6  C7  UNL d   1      -1.697  -0.696   2.392  0.00  0.00     0.002 A 
ATOM      7  C8  UNL d   1      -2.991  -1.165   2.629  0.00  0.00     0.006 A 
ENDROOT
BRANCH   1   8
ATOM      8  C1  UNL d   1      -4.778  -2.935   2.433  0.00  0.00     0.054 C 
ATOM      9  C   UNL d   1      -4.765  -4.450   2.572  0.00  0.00     0.018 C 
ENDBRANCH   1   8
TORSDOF 1
ENDMDL
