MODEL 1
REMARK minimizedAffinity 13.4939337
REMARK minimizedRMSD -1
REMARK  1 active torsions:
REMARK  status: ('A' for Active; 'I' for Inactive)
REMARK    1  A    between atoms: C1_2  and  C2_3 
ROOT
ATOM      1  C2  UNL d   1       2.725   2.076  -2.177  0.00  0.00    -0.081 A 
ATOM      2  C3  UNL d   1       2.130   2.632  -1.038  0.00  0.00     0.006 A 
ATOM      3  C4  UNL d   1       2.213   1.980   0.194  0.00  0.00     0.002 A 
ATOM      4  C5  UNL d   1       2.898   0.765   0.310  0.00  0.00    -0.080 A 
ATOM      5  C6  UNL d   1       3.020   0.070   1.633  0.00  0.00     0.076 C 
ATOM      6  C7  UNL d   1       3.477   0.201  -0.832  0.00  0.00     0.002 A 
ATOM      7  C8  UNL d   1       3.394   0.852  -2.064  0.00  0.00     0.006 A 
ENDROOT
BRANCH   1   8
ATOM      8  C1  UNL d   1       2.693   2.809  -3.494  0.00  0.00     0.054 C 
ATOM      9  C   UNL d   1       4.065   2.823  -4.153  0.00  0.00     0.018 C 
ENDBRANCH   1   8
TORSDOF 1
ENDMDL
