MODEL 1
REMARK minimizedAffinity 11.6358709
REMARK minimizedRMSD -1
REMARK  1 active torsions:
REMARK  status: ('A' for Active; 'I' for Inactive)
REMARK    1  A    between atoms: C1_2  and  C2_3 
ROOT
ATOM      1  C2  UNL d   1      -0.000  -1.795   2.368  0.00  0.00    -0.081 A 
ATOM      2  C3  UNL d   1      -0.378  -0.723   3.186  0.00  0.00     0.006 A 
ATOM      3  C4  UNL d   1      -1.537   0.006   2.907  0.00  0.00     0.002 A 
ATOM      4  C5  UNL d   1      -2.341  -0.330   1.812  0.00  0.00    -0.080 A 
ATOM      5  C6  UNL d   1      -3.603   0.425   1.520  0.00  0.00     0.076 C 
ATOM      6  C7  UNL d   1      -1.954  -1.389   0.985  0.00  0.00     0.002 A 
ATOM      7  C8  UNL d   1      -0.795  -2.118   1.263  0.00  0.00     0.006 A 
ENDROOT
BRANCH   1   8
ATOM      8  C1  UNL d   1       1.214  -2.623   2.703  0.00  0.00     0.054 C 
ATOM      9  C   UNL d   1       2.195  -1.844   3.567  0.00  0.00     0.018 C 
ENDBRANCH   1   8
TORSDOF 1
ENDMDL
