MODEL 1
REMARK minimizedAffinity 12.7550068
REMARK minimizedRMSD -1
REMARK  1 active torsions:
REMARK  status: ('A' for Active; 'I' for Inactive)
REMARK    1  A    between atoms: C1_2  and  C2_3 
ROOT
ATOM      1  C2  UNL d   1       3.353   1.514  -1.323  0.00  0.00    -0.081 A 
ATOM      2  C3  UNL d   1       2.597   0.811  -0.377  0.00  0.00     0.006 A 
ATOM      3  C4  UNL d   1       2.997   0.771   0.961  0.00  0.00     0.002 A 
ATOM      4  C5  UNL d   1       4.154   1.440   1.376  0.00  0.00    -0.080 A 
ATOM      5  C6  UNL d   1       4.578   1.430   2.815  0.00  0.00     0.076 C 
ATOM      6  C7  UNL d   1       4.919   2.127   0.428  0.00  0.00     0.002 A 
ATOM      7  C8  UNL d   1       4.520   2.167  -0.910  0.00  0.00     0.006 A 
ENDROOT
BRANCH   1   8
ATOM      8  C1  UNL d   1       2.890   1.613  -2.754  0.00  0.00     0.054 C 
ATOM      9  C   UNL d   1       3.287   2.945  -3.373  0.00  0.00     0.018 C 
ENDBRANCH   1   8
TORSDOF 1
ENDMDL
