MODEL 1
REMARK minimizedAffinity 3.74923134
REMARK minimizedRMSD -1
REMARK  1 active torsions:
REMARK  status: ('A' for Active; 'I' for Inactive)
REMARK    1  A    between atoms: C1_2  and  C2_3 
ROOT
ATOM      1  C2  UNL d   1       3.762   2.321   0.737  0.00  0.00    -0.081 A 
ATOM      2  C3  UNL d   1       4.189   2.206  -0.591  0.00  0.00     0.006 A 
ATOM      3  C4  UNL d   1       3.266   1.968  -1.613  0.00  0.00     0.002 A 
ATOM      4  C5  UNL d   1       1.903   1.849  -1.325  0.00  0.00    -0.080 A 
ATOM      5  C6  UNL d   1       0.899   1.624  -2.416  0.00  0.00     0.076 C 
ATOM      6  C7  UNL d   1       1.479   1.946   0.005  0.00  0.00     0.002 A 
ATOM      7  C8  UNL d   1       2.400   2.184   1.027  0.00  0.00     0.006 A 
ENDROOT
BRANCH   1   8
ATOM      8  C1  UNL d   1       4.746   2.642   1.833  0.00  0.00     0.054 C 
ATOM      9  C   UNL d   1       5.895   3.494   1.313  0.00  0.00     0.018 C 
ENDBRANCH   1   8
TORSDOF 1
ENDMDL
