MODEL 1
REMARK minimizedAffinity 6.33881283
REMARK minimizedRMSD -1
REMARK  1 active torsions:
REMARK  status: ('A' for Active; 'I' for Inactive)
REMARK    1  A    between atoms: C1_2  and  C2_3 
ROOT
ATOM      1  C2  UNL d   1      -5.971   1.359   1.741  0.00  0.00    -0.081 A 
ATOM      2  C3  UNL d   1      -5.983  -0.014   1.465  0.00  0.00     0.006 A 
ATOM      3  C4  UNL d   1      -5.997  -0.471   0.145  0.00  0.00     0.002 A 
ATOM      4  C5  UNL d   1      -5.991   0.436  -0.920  0.00  0.00    -0.080 A 
ATOM      5  C6  UNL d   1      -5.975  -0.041  -2.342  0.00  0.00     0.076 C 
ATOM      6  C7  UNL d   1      -5.996   1.808  -0.645  0.00  0.00     0.002 A 
ATOM      7  C8  UNL d   1      -5.983   2.265   0.675  0.00  0.00     0.006 A 
ENDROOT
BRANCH   1   8
ATOM      8  C1  UNL d   1      -5.891   1.854   3.162  0.00  0.00     0.054 C 
ATOM      9  C   UNL d   1      -4.452   1.880   3.659  0.00  0.00     0.018 C 
ENDBRANCH   1   8
TORSDOF 1
ENDMDL
