MODEL 1
REMARK minimizedAffinity 10.7327251
REMARK minimizedRMSD -1
REMARK  1 active torsions:
REMARK  status: ('A' for Active; 'I' for Inactive)
REMARK    1  A    between atoms: C1_2  and  C2_3 
ROOT
ATOM      1  C2  UNL d   1      -3.593   2.020   4.491  0.00  0.00    -0.081 A 
ATOM      2  C3  UNL d   1      -3.419   2.246   3.121  0.00  0.00     0.006 A 
ATOM      3  C4  UNL d   1      -2.753   1.309   2.327  0.00  0.00     0.002 A 
ATOM      4  C5  UNL d   1      -2.259   0.127   2.889  0.00  0.00    -0.080 A 
ATOM      5  C6  UNL d   1      -1.570  -0.902   2.042  0.00  0.00     0.076 C 
ATOM      6  C7  UNL d   1      -2.418  -0.092   4.261  0.00  0.00     0.002 A 
ATOM      7  C8  UNL d   1      -3.083   0.846   5.055  0.00  0.00     0.006 A 
ENDROOT
BRANCH   1   8
ATOM      8  C1  UNL d   1      -4.367   2.999   5.337  0.00  0.00     0.054 C 
ATOM      9  C   UNL d   1      -5.780   3.192   4.807  0.00  0.00     0.018 C 
ENDBRANCH   1   8
TORSDOF 1
ENDMDL
