MODEL 1
REMARK minimizedAffinity 13.8508806
REMARK minimizedRMSD -1
REMARK  1 active torsions:
REMARK  status: ('A' for Active; 'I' for Inactive)
REMARK    1  A    between atoms: C1_2  and  C2_3 
ROOT
ATOM      1  C2  UNL d   1      -3.701  -3.552   1.987  0.00  0.00    -0.081 A 
ATOM      2  C3  UNL d   1      -2.615  -3.764   1.129  0.00  0.00     0.006 A 
ATOM      3  C4  UNL d   1      -1.661  -2.762   0.933  0.00  0.00     0.002 A 
ATOM      4  C5  UNL d   1      -1.773  -1.536   1.599  0.00  0.00    -0.080 A 
ATOM      5  C6  UNL d   1      -0.739  -0.464   1.422  0.00  0.00     0.076 C 
ATOM      6  C7  UNL d   1      -2.867  -1.319   2.443  0.00  0.00     0.002 A 
ATOM      7  C8  UNL d   1      -3.821  -2.320   2.638  0.00  0.00     0.006 A 
ENDROOT
BRANCH   1   8
ATOM      8  C1  UNL d   1      -4.696  -4.654   2.250  0.00  0.00     0.054 C 
ATOM      9  C   UNL d   1      -5.999  -4.412   1.503  0.00  0.00     0.018 C 
ENDBRANCH   1   8
TORSDOF 1
ENDMDL
