MODEL 1
REMARK minimizedAffinity 2.62721729
REMARK minimizedRMSD -1
REMARK  1 active torsions:
REMARK  status: ('A' for Active; 'I' for Inactive)
REMARK    1  A    between atoms: C1_2  and  C2_3 
ROOT
ATOM      1  C2  UNL d   1       3.410  -3.980   0.336  0.00  0.00    -0.081 A 
ATOM      2  C3  UNL d   1       3.706  -2.666   0.722  0.00  0.00     0.006 A 
ATOM      3  C4  UNL d   1       2.715  -1.851   1.274  0.00  0.00     0.002 A 
ATOM      4  C5  UNL d   1       1.416  -2.336   1.457  0.00  0.00    -0.080 A 
ATOM      5  C6  UNL d   1       0.351  -1.481   2.076  0.00  0.00     0.076 C 
ATOM      6  C7  UNL d   1       1.116  -3.643   1.055  0.00  0.00     0.002 A 
ATOM      7  C8  UNL d   1       2.106  -4.458   0.503  0.00  0.00     0.006 A 
ENDROOT
BRANCH   1   8
ATOM      8  C1  UNL d   1       4.492  -4.883  -0.200  0.00  0.00     0.054 C 
ATOM      9  C   UNL d   1       4.817  -5.999   0.782  0.00  0.00     0.018 C 
ENDBRANCH   1   8
TORSDOF 1
ENDMDL
