MODEL 1
REMARK minimizedAffinity 5.61313248
REMARK minimizedRMSD -1
REMARK  1 active torsions:
REMARK  status: ('A' for Active; 'I' for Inactive)
REMARK    1  A    between atoms: C1_2  and  C2_3 
ROOT
ATOM      1  C2  UNL d   1       3.138  -4.216   0.015  0.00  0.00    -0.081 A 
ATOM      2  C3  UNL d   1       2.555  -3.647   1.153  0.00  0.00     0.006 A 
ATOM      3  C4  UNL d   1       1.185  -3.373   1.186  0.00  0.00     0.002 A 
ATOM      4  C5  UNL d   1       0.375  -3.672   0.085  0.00  0.00    -0.080 A 
ATOM      5  C6  UNL d   1      -1.101  -3.412   0.118  0.00  0.00     0.076 C 
ATOM      6  C7  UNL d   1       0.961  -4.225  -1.059  0.00  0.00     0.002 A 
ATOM      7  C8  UNL d   1       2.330  -4.497  -1.093  0.00  0.00     0.006 A 
ENDROOT
BRANCH   1   8
ATOM      8  C1  UNL d   1       4.603  -4.572   0.001  0.00  0.00     0.054 C 
ATOM      9  C   UNL d   1       4.856  -5.904   0.692  0.00  0.00     0.018 C 
ENDBRANCH   1   8
TORSDOF 1
ENDMDL
