MODEL 1
REMARK minimizedAffinity 2.61467361
REMARK minimizedRMSD -1
REMARK  1 active torsions:
REMARK  status: ('A' for Active; 'I' for Inactive)
REMARK    1  A    between atoms: C1_2  and  C2_3 
ROOT
ATOM      1  C2  UNL d   1       2.307  -3.820   0.162  0.00  0.00    -0.081 A 
ATOM      2  C3  UNL d   1       2.288  -5.204   0.371  0.00  0.00     0.006 A 
ATOM      3  C4  UNL d   1       3.481  -5.915   0.518  0.00  0.00     0.002 A 
ATOM      4  C5  UNL d   1       4.713  -5.253   0.469  0.00  0.00    -0.080 A 
ATOM      5  C6  UNL d   1       6.000  -5.999   0.656  0.00  0.00     0.076 C 
ATOM      6  C7  UNL d   1       4.733  -3.872   0.243  0.00  0.00     0.002 A 
ATOM      7  C8  UNL d   1       3.540  -3.161   0.095  0.00  0.00     0.006 A 
ENDROOT
BRANCH   1   8
ATOM      8  C1  UNL d   1       1.020  -3.041   0.067  0.00  0.00     0.054 C 
ATOM      9  C   UNL d   1       0.086  -3.373   1.221  0.00  0.00     0.018 C 
ENDBRANCH   1   8
TORSDOF 1
ENDMDL
