MODEL 1
REMARK minimizedAffinity -0.846848071
REMARK minimizedRMSD -1
REMARK  1 active torsions:
REMARK  status: ('A' for Active; 'I' for Inactive)
REMARK    1  A    between atoms: C1_2  and  C2_3 
ROOT
ATOM      1  C2  UNL d   1      -5.261  -2.158   5.312  0.00  0.00    -0.081 A 
ATOM      2  C3  UNL d   1      -4.855  -2.257   3.975  0.00  0.00     0.006 A 
ATOM      3  C4  UNL d   1      -4.821  -3.499   3.335  0.00  0.00     0.002 A 
ATOM      4  C5  UNL d   1      -5.199  -4.660   4.018  0.00  0.00    -0.080 A 
ATOM      5  C6  UNL d   1      -5.196  -5.994   3.334  0.00  0.00     0.076 C 
ATOM      6  C7  UNL d   1      -5.588  -4.563   5.359  0.00  0.00     0.002 A 
ATOM      7  C8  UNL d   1      -5.622  -3.322   5.999  0.00  0.00     0.006 A 
ENDROOT
BRANCH   1   8
ATOM      8  C1  UNL d   1      -5.361  -0.813   5.985  0.00  0.00     0.054 C 
ATOM      9  C   UNL d   1      -4.016  -0.100   5.999  0.00  0.00     0.018 C 
ENDBRANCH   1   8
TORSDOF 1
ENDMDL
