MODEL 1
REMARK minimizedAffinity 11.4838142
REMARK minimizedRMSD -1
REMARK  0 active torsions:
REMARK  status: ('A' for Active; 'I' for Inactive)
ROOT
ATOM      1  N1  IND d   1       4.558  -5.976  -2.069  0.00  0.00    -0.196 N 
ATOM      2  C2  IND d   1       3.323  -5.910  -1.486  0.00  0.00     0.054 A 
ATOM      3  C3  IND d   1       2.360  -5.831  -2.432  0.00  0.00    -0.031 A 
ATOM      4  C4  IND d   1       2.577  -5.898  -4.996  0.00  0.00     0.051 A 
ATOM      5  C5  IND d   1       3.505  -5.915  -5.999  0.00  0.00    -0.031 A 
ATOM      6  C6  IND d   1       4.860  -5.957  -5.737  0.00  0.00     0.015 A 
ATOM      7  C7  IND d   1       5.338  -5.995  -4.458  0.00  0.00    -0.016 A 
ATOM      8  C8  IND d   1       4.398  -5.971  -3.437  0.00  0.00    -0.047 A 
ATOM      9  C9  IND d   1       3.024  -5.885  -3.696  0.00  0.00    -0.096 A 
ATOM     10  HN1 IND d   1       5.309  -6.015  -1.651  0.00  0.00     0.298 HD
ENDROOT
TORSDOF 0
ENDMDL
