MODEL 1
REMARK minimizedAffinity 12.7597132
REMARK minimizedRMSD -1
REMARK  0 active torsions:
REMARK  status: ('A' for Active; 'I' for Inactive)
ROOT
ATOM      1  N1  IND d   1       4.451   0.376  -3.917  0.00  0.00    -0.196 N 
ATOM      2  C2  IND d   1       4.899   1.052  -5.018  0.00  0.00     0.054 A 
ATOM      3  C3  IND d   1       5.582   0.220  -5.836  0.00  0.00    -0.031 A 
ATOM      4  C4  IND d   1       6.000  -2.311  -5.614  0.00  0.00     0.051 A 
ATOM      5  C5  IND d   1       5.817  -3.362  -4.760  0.00  0.00    -0.031 A 
ATOM      6  C6  IND d   1       5.154  -3.219  -3.559  0.00  0.00     0.015 A 
ATOM      7  C7  IND d   1       4.637  -2.016  -3.170  0.00  0.00    -0.016 A 
ATOM      8  C8  IND d   1       4.826  -0.944  -4.031  0.00  0.00    -0.047 A 
ATOM      9  C9  IND d   1       5.536  -1.074  -5.232  0.00  0.00    -0.096 A 
ATOM     10  HN1 IND d   1       4.009   0.718  -3.264  0.00  0.00     0.298 HD
ENDROOT
TORSDOF 0
ENDMDL
