MODEL 1
REMARK minimizedAffinity 12.1310625
REMARK minimizedRMSD -1
REMARK  0 active torsions:
REMARK  status: ('A' for Active; 'I' for Inactive)
ROOT
ATOM      1  N1  IND d   1       2.008   5.226  -2.585  0.00  0.00    -0.196 N 
ATOM      2  C2  IND d   1       1.872   5.264  -1.225  0.00  0.00     0.054 A 
ATOM      3  C3  IND d   1       3.067   5.502  -0.640  0.00  0.00    -0.031 A 
ATOM      4  C4  IND d   1       5.357   5.962  -1.723  0.00  0.00     0.051 A 
ATOM      5  C5  IND d   1       5.987   5.996  -2.935  0.00  0.00    -0.031 A 
ATOM      6  C6  IND d   1       5.310   5.773  -4.116  0.00  0.00     0.015 A 
ATOM      7  C7  IND d   1       3.968   5.518  -4.131  0.00  0.00    -0.016 A 
ATOM      8  C8  IND d   1       3.325   5.476  -2.901  0.00  0.00    -0.047 A 
ATOM      9  C9  IND d   1       4.016   5.659  -1.696  0.00  0.00    -0.096 A 
ATOM     10  HN1 IND d   1       1.377   5.072  -3.148  0.00  0.00     0.298 HD
ENDROOT
TORSDOF 0
ENDMDL
