MODEL 1
REMARK minimizedAffinity 1.60891604
REMARK minimizedRMSD -1
REMARK  0 active torsions:
REMARK  status: ('A' for Active; 'I' for Inactive)
ROOT
ATOM      1  N1  IND d   1       0.485  -4.526   4.789  0.00  0.00    -0.196 N 
ATOM      2  C2  IND d   1       0.759  -5.522   5.685  0.00  0.00     0.054 A 
ATOM      3  C3  IND d   1       2.074  -5.525   5.999  0.00  0.00    -0.031 A 
ATOM      4  C4  IND d   1       3.939  -3.921   5.240  0.00  0.00     0.051 A 
ATOM      5  C5  IND d   1       4.182  -2.874   4.395  0.00  0.00    -0.031 A 
ATOM      6  C6  IND d   1       3.185  -2.312   3.626  0.00  0.00     0.015 A 
ATOM      7  C7  IND d   1       1.899  -2.770   3.680  0.00  0.00    -0.016 A 
ATOM      8  C8  IND d   1       1.650  -3.837   4.532  0.00  0.00    -0.047 A 
ATOM      9  C9  IND d   1       2.666  -4.440   5.283  0.00  0.00    -0.096 A 
ATOM     10  HN1 IND d   1      -0.285  -4.359   4.445  0.00  0.00     0.298 HD
ENDROOT
TORSDOF 0
ENDMDL
