MODEL 1
REMARK minimizedAffinity 7.08960009
REMARK minimizedRMSD -1
REMARK  0 active torsions:
REMARK  status: ('A' for Active; 'I' for Inactive)
ROOT
ATOM      1  N1  IND d   1       1.996   4.887  -1.817  0.00  0.00    -0.196 N 
ATOM      2  C2  IND d   1       2.136   4.658  -0.477  0.00  0.00     0.054 A 
ATOM      3  C3  IND d   1       3.416   4.869  -0.094  0.00  0.00    -0.031 A 
ATOM      4  C4  IND d   1       5.422   5.692  -1.481  0.00  0.00     0.051 A 
ATOM      5  C5  IND d   1       5.795   6.000  -2.760  0.00  0.00    -0.031 A 
ATOM      6  C6  IND d   1       4.901   5.954  -3.810  0.00  0.00     0.015 A 
ATOM      7  C7  IND d   1       3.593   5.608  -3.618  0.00  0.00    -0.016 A 
ATOM      8  C8  IND d   1       3.213   5.288  -2.323  0.00  0.00    -0.047 A 
ATOM      9  C9  IND d   1       4.126   5.291  -1.260  0.00  0.00    -0.096 A 
ATOM     10  HN1 IND d   1       1.270   4.795  -2.269  0.00  0.00     0.298 HD
ENDROOT
TORSDOF 0
ENDMDL
