MODEL 1
REMARK minimizedAffinity 4.88837576
REMARK minimizedRMSD -1
REMARK  0 active torsions:
REMARK  status: ('A' for Active; 'I' for Inactive)
ROOT
ATOM      1  N1  IND d   1       1.527  -0.004   2.491  0.00  0.00    -0.196 N 
ATOM      2  C2  IND d   1       1.768  -1.297   2.117  0.00  0.00     0.054 A 
ATOM      3  C3  IND d   1       2.564  -1.908   3.023  0.00  0.00    -0.031 A 
ATOM      4  C4  IND d   1       3.504  -1.010   5.245  0.00  0.00     0.051 A 
ATOM      5  C5  IND d   1       3.586   0.127   5.998  0.00  0.00    -0.031 A 
ATOM      6  C6  IND d   1       2.971   1.302   5.615  0.00  0.00     0.015 A 
ATOM      7  C7  IND d   1       2.239   1.380   4.464  0.00  0.00    -0.016 A 
ATOM      8  C8  IND d   1       2.159   0.229   3.693  0.00  0.00    -0.047 A 
ATOM      9  C9  IND d   1       2.816  -0.954   4.055  0.00  0.00    -0.096 A 
ATOM     10  HN1 IND d   1       1.060   0.567   2.050  0.00  0.00     0.298 HD
ENDROOT
TORSDOF 0
ENDMDL
