MODEL 1
REMARK minimizedAffinity 3.06880522
REMARK minimizedRMSD -1
REMARK  1 active torsions:
REMARK  status: ('A' for Active; 'I' for Inactive)
REMARK    1  A    between atoms: C1_2  and  C2_3 
ROOT
ATOM      1  C2  UNL d   1      -1.508   3.072  -0.447  0.00  0.00    -0.073 A 
ATOM      2  C3  UNL d   1      -2.141   4.262  -0.070  0.00  0.00    -0.002 A 
ATOM      3  C4  UNL d   1      -3.498   4.267   0.255  0.00  0.00     0.004 A 
ATOM      4  C5  UNL d   1      -4.234   3.083   0.212  0.00  0.00    -0.004 A 
ATOM      5  C6  UNL d   1      -3.617   1.881  -0.151  0.00  0.00    -0.075 A 
ATOM      6  C7  UNL d   1      -4.395   0.599  -0.203  0.00  0.00     0.076 C 
ATOM      7  C8  UNL d   1      -2.254   1.885  -0.478  0.00  0.00     0.001 A 
ENDROOT
BRANCH   1   8
ATOM      8  C1  UNL d   1      -0.042   3.061  -0.792  0.00  0.00     0.053 C 
ATOM      9  C   UNL d   1       0.357   1.803  -1.546  0.00  0.00     0.018 C 
ENDBRANCH   1   8
TORSDOF 1
ENDMDL
