MODEL 1
REMARK minimizedAffinity -2.95232439
REMARK minimizedRMSD -1
REMARK  1 active torsions:
REMARK  status: ('A' for Active; 'I' for Inactive)
REMARK    1  A    between atoms: C1_2  and  C2_3 
ROOT
ATOM      1  C2  UNL d   1      -2.783  -0.346   0.716  0.00  0.00    -0.073 A 
ATOM      2  C3  UNL d   1      -2.448  -0.272   2.073  0.00  0.00    -0.002 A 
ATOM      3  C4  UNL d   1      -2.246   0.967   2.683  0.00  0.00     0.004 A 
ATOM      4  C5  UNL d   1      -2.384   2.143   1.945  0.00  0.00    -0.004 A 
ATOM      5  C6  UNL d   1      -2.730   2.091   0.591  0.00  0.00    -0.075 A 
ATOM      6  C7  UNL d   1      -2.880   3.346  -0.216  0.00  0.00     0.076 C 
ATOM      7  C8  UNL d   1      -2.929   0.842  -0.014  0.00  0.00     0.001 A 
ENDROOT
BRANCH   1   8
ATOM      8  C1  UNL d   1      -3.009  -1.681   0.055  0.00  0.00     0.053 C 
ATOM      9  C   UNL d   1      -1.755  -2.541   0.065  0.00  0.00     0.018 C 
ENDBRANCH   1   8
TORSDOF 1
ENDMDL
