MODEL 1
REMARK minimizedAffinity -2.1446209
REMARK minimizedRMSD -1
REMARK  1 active torsions:
REMARK  status: ('A' for Active; 'I' for Inactive)
REMARK    1  A    between atoms: C1_2  and  C2_3 
ROOT
ATOM      1  C2  UNL d   1      -2.943   1.077   1.802  0.00  0.00    -0.073 A 
ATOM      2  C3  UNL d   1      -3.440   0.761   0.533  0.00  0.00    -0.002 A 
ATOM      3  C4  UNL d   1      -3.805   1.775  -0.354  0.00  0.00     0.004 A 
ATOM      4  C5  UNL d   1      -3.670   3.113   0.015  0.00  0.00    -0.004 A 
ATOM      5  C6  UNL d   1      -3.164   3.449   1.275  0.00  0.00    -0.075 A 
ATOM      6  C7  UNL d   1      -3.015   4.884   1.689  0.00  0.00     0.076 C 
ATOM      7  C8  UNL d   1      -2.803   2.426   2.161  0.00  0.00     0.001 A 
ENDROOT
BRANCH   1   8
ATOM      8  C1  UNL d   1      -2.542  -0.014   2.761  0.00  0.00     0.053 C 
ATOM      9  C   UNL d   1      -3.677  -0.394   3.699  0.00  0.00     0.018 C 
ENDBRANCH   1   8
TORSDOF 1
ENDMDL
