MODEL 1
REMARK minimizedAffinity -3.03204083
REMARK minimizedRMSD -1
REMARK  1 active torsions:
REMARK  status: ('A' for Active; 'I' for Inactive)
REMARK    1  A    between atoms: C1_2  and  C2_3 
ROOT
ATOM      1  C2  UNL d   1      -2.928   1.114   1.034  0.00  0.00    -0.073 A 
ATOM      2  C3  UNL d   1      -2.136   1.302  -0.105  0.00  0.00    -0.002 A 
ATOM      3  C4  UNL d   1      -2.201   2.500  -0.818  0.00  0.00     0.004 A 
ATOM      4  C5  UNL d   1      -3.050   3.523  -0.397  0.00  0.00    -0.004 A 
ATOM      5  C6  UNL d   1      -3.841   3.358   0.745  0.00  0.00    -0.075 A 
ATOM      6  C7  UNL d   1      -4.762   4.448   1.210  0.00  0.00     0.076 C 
ATOM      7  C8  UNL d   1      -3.772   2.151   1.454  0.00  0.00     0.001 A 
ENDROOT
BRANCH   1   8
ATOM      8  C1  UNL d   1      -2.857  -0.175   1.811  0.00  0.00     0.053 C 
ATOM      9  C   UNL d   1      -2.804   0.066   3.311  0.00  0.00     0.018 C 
ENDBRANCH   1   8
TORSDOF 1
ENDMDL
