MODEL 1
REMARK minimizedAffinity 1.54275703
REMARK minimizedRMSD -1
REMARK  1 active torsions:
REMARK  status: ('A' for Active; 'I' for Inactive)
REMARK    1  A    between atoms: C1_2  and  C2_3 
ROOT
ATOM      1  C2  UNL d   1       3.422  -0.702   2.976  0.00  0.00    -0.073 A 
ATOM      2  C3  UNL d   1       3.528   0.322   2.028  0.00  0.00    -0.002 A 
ATOM      3  C4  UNL d   1       4.423   1.374   2.225  0.00  0.00     0.004 A 
ATOM      4  C5  UNL d   1       5.225   1.410   3.366  0.00  0.00    -0.004 A 
ATOM      5  C6  UNL d   1       5.141   0.390   4.319  0.00  0.00    -0.075 A 
ATOM      6  C7  UNL d   1       5.995   0.415   5.553  0.00  0.00     0.076 C 
ATOM      7  C8  UNL d   1       4.238  -0.662   4.116  0.00  0.00     0.001 A 
ENDROOT
BRANCH   1   8
ATOM      8  C1  UNL d   1       2.461  -1.844   2.765  0.00  0.00     0.053 C 
ATOM      9  C   UNL d   1       2.624  -2.479   1.393  0.00  0.00     0.018 C 
ENDBRANCH   1   8
TORSDOF 1
ENDMDL
