MODEL 1
REMARK minimizedAffinity 1.42022574
REMARK minimizedRMSD -1
REMARK  1 active torsions:
REMARK  status: ('A' for Active; 'I' for Inactive)
REMARK    1  A    between atoms: C1_2  and  C2_3 
ROOT
ATOM      1  C2  UNL d   1      -3.211  -0.523   1.388  0.00  0.00    -0.073 A 
ATOM      2  C3  UNL d   1      -2.577  -1.723   1.731  0.00  0.00    -0.002 A 
ATOM      3  C4  UNL d   1      -2.347  -2.041   3.070  0.00  0.00     0.004 A 
ATOM      4  C5  UNL d   1      -2.754  -1.168   4.079  0.00  0.00    -0.004 A 
ATOM      5  C6  UNL d   1      -3.399   0.030   3.757  0.00  0.00    -0.075 A 
ATOM      6  C7  UNL d   1      -3.841   0.981   4.830  0.00  0.00     0.076 C 
ATOM      7  C8  UNL d   1      -3.624   0.344   2.410  0.00  0.00     0.001 A 
ENDROOT
BRANCH   1   8
ATOM      8  C1  UNL d   1      -3.467  -0.178  -0.056  0.00  0.00     0.053 C 
ATOM      9  C   UNL d   1      -4.947   0.019  -0.341  0.00  0.00     0.018 C 
ENDBRANCH   1   8
TORSDOF 1
ENDMDL
