MODEL 1
REMARK minimizedAffinity 13.9906101
REMARK minimizedRMSD -1
REMARK  1 active torsions:
REMARK  status: ('A' for Active; 'I' for Inactive)
REMARK    1  A    between atoms: C1_2  and  C2_3 
ROOT
ATOM      1  C2  UNL d   1      -4.048   4.535   2.347  0.00  0.00    -0.073 A 
ATOM      2  C3  UNL d   1      -5.020   5.260   1.648  0.00  0.00    -0.002 A 
ATOM      3  C4  UNL d   1      -5.991   5.985   2.340  0.00  0.00     0.004 A 
ATOM      4  C5  UNL d   1      -5.996   5.999   3.735  0.00  0.00    -0.004 A 
ATOM      5  C6  UNL d   1      -5.025   5.291   4.451  0.00  0.00    -0.075 A 
ATOM      6  C7  UNL d   1      -5.018   5.294   5.951  0.00  0.00     0.076 C 
ATOM      7  C8  UNL d   1      -4.055   4.562   3.749  0.00  0.00     0.001 A 
ENDROOT
BRANCH   1   8
ATOM      8  C1  UNL d   1      -2.994   3.755   1.605  0.00  0.00     0.053 C 
ATOM      9  C   UNL d   1      -3.062   2.268   1.913  0.00  0.00     0.018 C 
ENDBRANCH   1   8
TORSDOF 1
ENDMDL
