MODEL 1
REMARK minimizedAffinity 4.69613409
REMARK minimizedRMSD -1
REMARK  1 active torsions:
REMARK  status: ('A' for Active; 'I' for Inactive)
REMARK    1  A    between atoms: C1_2  and  C2_3 
ROOT
ATOM      1  C2  UNL d   1       4.535   2.013   2.480  0.00  0.00    -0.073 A 
ATOM      2  C3  UNL d   1       4.893   0.749   1.997  0.00  0.00    -0.002 A 
ATOM      3  C4  UNL d   1       5.612  -0.136   2.801  0.00  0.00     0.004 A 
ATOM      4  C5  UNL d   1       5.974   0.229   4.097  0.00  0.00    -0.004 A 
ATOM      5  C6  UNL d   1       5.616   1.483   4.603  0.00  0.00    -0.075 A 
ATOM      6  C7  UNL d   1       5.999   1.892   5.995  0.00  0.00     0.076 C 
ATOM      7  C8  UNL d   1       4.896   2.368   3.788  0.00  0.00     0.001 A 
ENDROOT
BRANCH   1   8
ATOM      8  C1  UNL d   1       3.754   2.970   1.618  0.00  0.00     0.053 C 
ATOM      9  C   UNL d   1       2.724   2.252   0.760  0.00  0.00     0.018 C 
ENDBRANCH   1   8
TORSDOF 1
ENDMDL
