MODEL 1
REMARK minimizedAffinity 3.18708134
REMARK minimizedRMSD -1
REMARK  1 active torsions:
REMARK  status: ('A' for Active; 'I' for Inactive)
REMARK    1  A    between atoms: C1_2  and  C2_3 
ROOT
ATOM      1  C2  UNL d   1       4.343   1.252   2.969  0.00  0.00    -0.073 A 
ATOM      2  C3  UNL d   1       5.558   1.253   3.663  0.00  0.00    -0.002 A 
ATOM      3  C4  UNL d   1       5.914   0.165   4.462  0.00  0.00     0.004 A 
ATOM      4  C5  UNL d   1       5.063  -0.935   4.569  0.00  0.00    -0.004 A 
ATOM      5  C6  UNL d   1       3.851  -0.959   3.873  0.00  0.00    -0.075 A 
ATOM      6  C7  UNL d   1       2.924  -2.135   3.980  0.00  0.00     0.076 C 
ATOM      7  C8  UNL d   1       3.499   0.138   3.075  0.00  0.00     0.001 A 
ENDROOT
BRANCH   1   8
ATOM      8  C1  UNL d   1       3.958   2.421   2.099  0.00  0.00     0.053 C 
ATOM      9  C   UNL d   1       4.535   3.730   2.616  0.00  0.00     0.018 C 
ENDBRANCH   1   8
TORSDOF 1
ENDMDL
