MODEL 1
REMARK minimizedAffinity -1.64225948
REMARK minimizedRMSD -1
REMARK  1 active torsions:
REMARK  status: ('A' for Active; 'I' for Inactive)
REMARK    1  A    between atoms: C1_2  and  C2_3 
ROOT
ATOM      1  C2  UNL d   1       3.077  -0.475   1.713  0.00  0.00    -0.073 A 
ATOM      2  C3  UNL d   1       3.868  -1.629   1.733  0.00  0.00    -0.002 A 
ATOM      3  C4  UNL d   1       3.407  -2.810   1.150  0.00  0.00     0.004 A 
ATOM      4  C5  UNL d   1       2.154  -2.848   0.537  0.00  0.00    -0.004 A 
ATOM      5  C6  UNL d   1       1.354  -1.702   0.497  0.00  0.00    -0.075 A 
ATOM      6  C7  UNL d   1       0.003  -1.727  -0.156  0.00  0.00     0.076 C 
ATOM      7  C8  UNL d   1       1.823  -0.520   1.087  0.00  0.00     0.001 A 
ENDROOT
BRANCH   1   8
ATOM      8  C1  UNL d   1       3.574   0.804   2.335  0.00  0.00     0.053 C 
ATOM      9  C   UNL d   1       4.824   0.583   3.172  0.00  0.00     0.018 C 
ENDBRANCH   1   8
TORSDOF 1
ENDMDL
