MODEL 1
REMARK minimizedAffinity 1.78503501
REMARK minimizedRMSD -1
REMARK  1 active torsions:
REMARK  status: ('A' for Active; 'I' for Inactive)
REMARK    1  A    between atoms: C1_2  and  C2_3 
ROOT
ATOM      1  C2  UNL d   1       5.452   1.686   3.881  0.00  0.00    -0.073 A 
ATOM      2  C3  UNL d   1       4.488   1.654   2.867  0.00  0.00    -0.002 A 
ATOM      3  C4  UNL d   1       4.011   2.842   2.311  0.00  0.00     0.004 A 
ATOM      4  C5  UNL d   1       4.496   4.071   2.758  0.00  0.00    -0.004 A 
ATOM      5  C6  UNL d   1       5.468   4.122   3.762  0.00  0.00    -0.075 A 
ATOM      6  C7  UNL d   1       5.999   5.437   4.255  0.00  0.00     0.076 C 
ATOM      7  C8  UNL d   1       5.941   2.926   4.317  0.00  0.00     0.001 A 
ENDROOT
BRANCH   1   8
ATOM      8  C1  UNL d   1       5.975   0.406   4.480  0.00  0.00     0.053 C 
ATOM      9  C   UNL d   1       5.997   0.454   6.000  0.00  0.00     0.018 C 
ENDBRANCH   1   8
TORSDOF 1
ENDMDL
