MODEL 1
REMARK minimizedAffinity 13.0953484
REMARK minimizedRMSD -1
REMARK  1 active torsions:
REMARK  status: ('A' for Active; 'I' for Inactive)
REMARK    1  A    between atoms: C1_2  and  C2_3 
ROOT
ATOM      1  C2  UNL d   1       5.299   1.167   3.733  0.00  0.00    -0.073 A 
ATOM      2  C3  UNL d   1       4.369   0.880   2.728  0.00  0.00    -0.002 A 
ATOM      3  C4  UNL d   1       3.727   1.915   2.046  0.00  0.00     0.004 A 
ATOM      4  C5  UNL d   1       4.013   3.244   2.356  0.00  0.00    -0.004 A 
ATOM      5  C6  UNL d   1       4.948   3.551   3.349  0.00  0.00    -0.075 A 
ATOM      6  C7  UNL d   1       5.265   4.976   3.697  0.00  0.00     0.076 C 
ATOM      7  C8  UNL d   1       5.587   2.507   4.032  0.00  0.00     0.001 A 
ENDROOT
BRANCH   1   8
ATOM      8  C1  UNL d   1       6.000   0.054   4.468  0.00  0.00     0.053 C 
ATOM      9  C   UNL d   1       6.000   0.275   5.972  0.00  0.00     0.018 C 
ENDBRANCH   1   8
TORSDOF 1
ENDMDL
