MODEL 1
REMARK minimizedAffinity 6.2221036
REMARK minimizedRMSD -1
REMARK  1 active torsions:
REMARK  status: ('A' for Active; 'I' for Inactive)
REMARK    1  A    between atoms: C1_2  and  C2_3 
ROOT
ATOM      1  C2  UNL d   1       5.432   3.733   3.610  0.00  0.00    -0.073 A 
ATOM      2  C3  UNL d   1       5.999   2.886   4.569  0.00  0.00    -0.002 A 
ATOM      3  C4  UNL d   1       5.873   1.502   4.451  0.00  0.00     0.004 A 
ATOM      4  C5  UNL d   1       5.186   0.950   3.370  0.00  0.00    -0.004 A 
ATOM      5  C6  UNL d   1       4.623   1.778   2.394  0.00  0.00    -0.075 A 
ATOM      6  C7  UNL d   1       3.879   1.200   1.226  0.00  0.00     0.076 C 
ATOM      7  C8  UNL d   1       4.752   3.168   2.522  0.00  0.00     0.001 A 
ENDROOT
BRANCH   1   8
ATOM      8  C1  UNL d   1       5.572   5.228   3.730  0.00  0.00     0.053 C 
ATOM      9  C   UNL d   1       5.541   5.689   5.179  0.00  0.00     0.018 C 
ENDBRANCH   1   8
TORSDOF 1
ENDMDL
