MODEL 1
REMARK minimizedAffinity 6.02606869
REMARK minimizedRMSD -1
REMARK  1 active torsions:
REMARK  status: ('A' for Active; 'I' for Inactive)
REMARK    1  A    between atoms: N_2  and  C1_3 
ROOT
ATOM      1  C1  UNL d   1      -2.127  -0.001   2.270  0.00  0.00     0.143 A 
ATOM      2  C2  UNL d   1      -3.422  -0.513   2.399  0.00  0.00    -0.057 A 
ATOM      3  C3  UNL d   1      -3.783  -1.308   3.494  0.00  0.00     0.033 A 
ATOM      4  C4  UNL d   1      -2.843  -1.629   4.468  0.00  0.00    -0.042 A 
ATOM      5  C5  UNL d   1      -1.543  -1.152   4.347  0.00  0.00     0.033 A 
ATOM      6  C6  UNL d   1      -1.190  -0.353   3.255  0.00  0.00    -0.057 A 
ENDROOT
BRANCH   1   7
ATOM      7  N   UNL d   1      -1.680   0.713   1.155  0.00  0.00    -0.732 N 
ATOM      8  C   UNL d   1      -1.671   0.102  -0.156  0.00  0.00     0.284 C 
ATOM      9  H3  UNL d   1      -1.997   1.680   1.161  0.00  0.00     0.395 HD
ENDBRANCH   1   7
TORSDOF 1
ENDMDL
