MODEL 1
REMARK minimizedAffinity 8.0497303
REMARK minimizedRMSD -1
REMARK  1 active torsions:
REMARK  status: ('A' for Active; 'I' for Inactive)
REMARK    1  A    between atoms: N_2  and  C1_3 
ROOT
ATOM      1  C1  UNL d   1      -2.991  -0.321   2.057  0.00  0.00     0.143 A 
ATOM      2  C2  UNL d   1      -2.545   0.960   1.717  0.00  0.00    -0.057 A 
ATOM      3  C3  UNL d   1      -2.343   1.328   0.381  0.00  0.00     0.033 A 
ATOM      4  C4  UNL d   1      -2.556   0.408  -0.640  0.00  0.00    -0.042 A 
ATOM      5  C5  UNL d   1      -2.976  -0.879  -0.324  0.00  0.00     0.033 A 
ATOM      6  C6  UNL d   1      -3.182  -1.238   1.011  0.00  0.00    -0.057 A 
ENDROOT
BRANCH   1   7
ATOM      7  N   UNL d   1      -3.117  -0.778   3.371  0.00  0.00    -0.732 N 
ATOM      8  C   UNL d   1      -1.961  -1.258   4.098  0.00  0.00     0.284 C 
ATOM      9  H3  UNL d   1      -3.746  -0.201   3.924  0.00  0.00     0.395 HD
ENDBRANCH   1   7
TORSDOF 1
ENDMDL
