MODEL 1
REMARK minimizedAffinity 1.64248252
REMARK minimizedRMSD -1
REMARK  1 active torsions:
REMARK  status: ('A' for Active; 'I' for Inactive)
REMARK    1  A    between atoms: N_2  and  C1_3 
ROOT
ATOM      1  C1  UNL d   1       0.398  -0.443   1.470  0.00  0.00     0.143 A 
ATOM      2  C2  UNL d   1       0.736  -0.339   0.116  0.00  0.00    -0.057 A 
ATOM      3  C3  UNL d   1      -0.211   0.047  -0.841  0.00  0.00     0.033 A 
ATOM      4  C4  UNL d   1      -1.525   0.307  -0.463  0.00  0.00    -0.042 A 
ATOM      5  C5  UNL d   1      -1.889   0.185   0.873  0.00  0.00     0.033 A 
ATOM      6  C6  UNL d   1      -0.937  -0.194   1.825  0.00  0.00    -0.057 A 
ENDROOT
BRANCH   1   7
ATOM      7  N   UNL d   1       1.269  -0.916   2.454  0.00  0.00    -0.732 N 
ATOM      8  C   UNL d   1       0.765  -1.336   3.744  0.00  0.00     0.284 C 
ATOM      9  H3  UNL d   1       1.993  -1.521   2.074  0.00  0.00     0.395 HD
ENDBRANCH   1   7
TORSDOF 1
ENDMDL
