MODEL 1
REMARK minimizedAffinity 1.83531821
REMARK minimizedRMSD -1
REMARK  1 active torsions:
REMARK  status: ('A' for Active; 'I' for Inactive)
REMARK    1  A    between atoms: N_2  and  C1_3 
ROOT
ATOM      1  C1  UNL d   1      -1.983  -0.376   2.694  0.00  0.00     0.143 A 
ATOM      2  C2  UNL d   1      -0.610  -0.445   2.957  0.00  0.00    -0.057 A 
ATOM      3  C3  UNL d   1      -0.126  -1.007   4.144  0.00  0.00     0.033 A 
ATOM      4  C4  UNL d   1      -1.010  -1.486   5.105  0.00  0.00    -0.042 A 
ATOM      5  C5  UNL d   1      -2.379  -1.405   4.876  0.00  0.00     0.033 A 
ATOM      6  C6  UNL d   1      -2.856  -0.848   3.686  0.00  0.00    -0.057 A 
ENDROOT
BRANCH   1   7
ATOM      7  N   UNL d   1      -2.530   0.261   1.577  0.00  0.00    -0.732 N 
ATOM      8  C   UNL d   1      -2.327  -0.277   0.249  0.00  0.00     0.284 C 
ATOM      9  H3  UNL d   1      -3.473   0.603   1.748  0.00  0.00     0.395 HD
ENDBRANCH   1   7
TORSDOF 1
ENDMDL
