MODEL 1
REMARK minimizedAffinity 1.00320303
REMARK minimizedRMSD -1
REMARK  1 active torsions:
REMARK  status: ('A' for Active; 'I' for Inactive)
REMARK    1  A    between atoms: N_2  and  C1_3 
ROOT
ATOM      1  C1  UNL d   1      -2.297  -0.568   3.140  0.00  0.00     0.143 A 
ATOM      2  C2  UNL d   1      -3.291  -1.277   3.821  0.00  0.00    -0.057 A 
ATOM      3  C3  UNL d   1      -3.026  -1.907   5.044  0.00  0.00     0.033 A 
ATOM      4  C4  UNL d   1      -1.749  -1.861   5.594  0.00  0.00    -0.042 A 
ATOM      5  C5  UNL d   1      -0.739  -1.183   4.921  0.00  0.00     0.033 A 
ATOM      6  C6  UNL d   1      -1.012  -0.551   3.704  0.00  0.00    -0.057 A 
ENDROOT
BRANCH   1   7
ATOM      7  N   UNL d   1      -2.472  -0.004   1.874  0.00  0.00    -0.732 N 
ATOM      8  C   UNL d   1      -1.537  -0.285   0.806  0.00  0.00     0.284 C 
ATOM      9  H3  UNL d   1      -3.447  -0.000   1.582  0.00  0.00     0.395 HD
ENDBRANCH   1   7
TORSDOF 1
ENDMDL
