MODEL 1
REMARK minimizedAffinity -5.34926271
REMARK minimizedRMSD -1
REMARK  0 active torsions:
REMARK  status: ('A' for Active; 'I' for Inactive)
ROOT
ATOM      1  C   UNL d   1      -1.143  -0.066  -0.755  0.00  0.00     0.078 C 
ATOM      2  C1  UNL d   1       0.294  -0.087  -0.327  0.00  0.00    -0.077 A 
ATOM      3  C2  UNL d   1       1.020  -1.284  -0.297  0.00  0.00    -0.001 A 
ATOM      4  C3  UNL d   1       2.355  -1.290   0.113  0.00  0.00     0.003 A 
ATOM      5  C4  UNL d   1       2.974  -0.102   0.497  0.00  0.00    -0.005 A 
ATOM      6  C5  UNL d   1       2.259   1.094   0.472  0.00  0.00     0.003 A 
ATOM      7  C6  UNL d   1       0.925   1.102   0.063  0.00  0.00    -0.001 A 
ENDROOT
TORSDOF 0
ENDMDL
