MODEL 1
REMARK minimizedAffinity -5.25145006
REMARK minimizedRMSD -1
REMARK  0 active torsions:
REMARK  status: ('A' for Active; 'I' for Inactive)
ROOT
ATOM      1  C   UNL d   1       3.621  -0.710   0.368  0.00  0.00     0.078 C 
ATOM      2  C1  UNL d   1       2.180  -0.295   0.350  0.00  0.00    -0.077 A 
ATOM      3  C2  UNL d   1       1.814   1.048   0.497  0.00  0.00    -0.001 A 
ATOM      4  C3  UNL d   1       0.468   1.419   0.488  0.00  0.00     0.003 A 
ATOM      5  C4  UNL d   1      -0.522   0.451   0.333  0.00  0.00    -0.005 A 
ATOM      6  C5  UNL d   1      -0.168  -0.889   0.188  0.00  0.00     0.003 A 
ATOM      7  C6  UNL d   1       1.177  -1.261   0.197  0.00  0.00    -0.001 A 
ENDROOT
TORSDOF 0
ENDMDL
