MODEL 1
REMARK minimizedAffinity -5.32631159
REMARK minimizedRMSD -1
REMARK  0 active torsions:
REMARK  status: ('A' for Active; 'I' for Inactive)
ROOT
ATOM      1  C   UNL d   1      -1.090  -0.055  -0.355  0.00  0.00     0.078 C 
ATOM      2  C1  UNL d   1       0.353  -0.085   0.053  0.00  0.00    -0.077 A 
ATOM      3  C2  UNL d   1       1.011   1.082   0.463  0.00  0.00    -0.001 A 
ATOM      4  C3  UNL d   1       2.356   1.041   0.831  0.00  0.00     0.003 A 
ATOM      5  C4  UNL d   1       3.056  -0.164   0.791  0.00  0.00    -0.005 A 
ATOM      6  C5  UNL d   1       2.411  -1.329   0.383  0.00  0.00     0.003 A 
ATOM      7  C6  UNL d   1       1.065  -1.290   0.014  0.00  0.00    -0.001 A 
ENDROOT
TORSDOF 0
ENDMDL
