MODEL 1
REMARK minimizedAffinity -5.67242813
REMARK minimizedRMSD -1
REMARK  0 active torsions:
REMARK  status: ('A' for Active; 'I' for Inactive)
ROOT
ATOM      1  C   UNL d   1      -0.777  -0.465  -0.153  0.00  0.00     0.078 C 
ATOM      2  C1  UNL d   1       0.551  -0.653   0.519  0.00  0.00    -0.077 A 
ATOM      3  C2  UNL d   1       0.805  -1.779   1.311  0.00  0.00    -0.001 A 
ATOM      4  C3  UNL d   1       2.042  -1.936   1.938  0.00  0.00     0.003 A 
ATOM      5  C4  UNL d   1       3.034  -0.970   1.780  0.00  0.00    -0.005 A 
ATOM      6  C5  UNL d   1       2.790   0.155   0.995  0.00  0.00     0.003 A 
ATOM      7  C6  UNL d   1       1.553   0.313   0.368  0.00  0.00    -0.001 A 
ENDROOT
TORSDOF 0
ENDMDL
