MODEL 1
REMARK minimizedAffinity -5.89199114
REMARK minimizedRMSD -1
REMARK  0 active torsions:
REMARK  status: ('A' for Active; 'I' for Inactive)
ROOT
ATOM      1  C   UNL d   1      -0.839  -0.215  -0.268  0.00  0.00     0.078 C 
ATOM      2  C1  UNL d   1       0.544  -0.269   0.310  0.00  0.00    -0.077 A 
ATOM      3  C2  UNL d   1       1.383   0.852   0.276  0.00  0.00    -0.001 A 
ATOM      4  C3  UNL d   1       2.671   0.785   0.809  0.00  0.00     0.003 A 
ATOM      5  C4  UNL d   1       3.133  -0.401   1.377  0.00  0.00    -0.005 A 
ATOM      6  C5  UNL d   1       2.306  -1.521   1.413  0.00  0.00     0.003 A 
ATOM      7  C6  UNL d   1       1.017  -1.456   0.881  0.00  0.00    -0.001 A 
ENDROOT
TORSDOF 0
ENDMDL
