MODEL 1
REMARK minimizedAffinity -4.0798769
REMARK minimizedRMSD -1
REMARK  0 active torsions:
REMARK  status: ('A' for Active; 'I' for Inactive)
ROOT
ATOM      1  C   UNL d   1      -1.566  -0.316   0.336  0.00  0.00     0.078 C 
ATOM      2  C1  UNL d   1      -0.129   0.068   0.527  0.00  0.00    -0.077 A 
ATOM      3  C2  UNL d   1       0.874  -0.906   0.608  0.00  0.00    -0.001 A 
ATOM      4  C3  UNL d   1       2.206  -0.535   0.795  0.00  0.00     0.003 A 
ATOM      5  C4  UNL d   1       2.548   0.811   0.905  0.00  0.00    -0.005 A 
ATOM      6  C5  UNL d   1       1.558   1.788   0.828  0.00  0.00     0.003 A 
ATOM      7  C6  UNL d   1       0.225   1.419   0.640  0.00  0.00    -0.001 A 
ENDROOT
TORSDOF 0
ENDMDL
