MODEL 1
REMARK minimizedAffinity -3.99422121
REMARK minimizedRMSD -1
REMARK  0 active torsions:
REMARK  status: ('A' for Active; 'I' for Inactive)
ROOT
ATOM      1  C   UNL d   1       3.373  -0.374   1.155  0.00  0.00     0.078 C 
ATOM      2  C1  UNL d   1       2.003  -0.126   0.598  0.00  0.00    -0.077 A 
ATOM      3  C2  UNL d   1       1.132  -1.188   0.326  0.00  0.00    -0.001 A 
ATOM      4  C3  UNL d   1      -0.137  -0.943  -0.201  0.00  0.00     0.003 A 
ATOM      5  C4  UNL d   1      -0.546   0.363  -0.462  0.00  0.00    -0.005 A 
ATOM      6  C5  UNL d   1       0.314   1.426  -0.196  0.00  0.00     0.003 A 
ATOM      7  C6  UNL d   1       1.584   1.183   0.331  0.00  0.00    -0.001 A 
ENDROOT
TORSDOF 0
ENDMDL
