MODEL 1
REMARK minimizedAffinity -5.40779066
REMARK minimizedRMSD -1
REMARK  0 active torsions:
REMARK  status: ('A' for Active; 'I' for Inactive)
ROOT
ATOM      1  C   UNL d   1       3.252  -0.583   0.722  0.00  0.00     0.078 C 
ATOM      2  C1  UNL d   1       1.780  -0.330   0.597  0.00  0.00    -0.077 A 
ATOM      3  C2  UNL d   1       1.287   0.957   0.353  0.00  0.00    -0.001 A 
ATOM      4  C3  UNL d   1      -0.087   1.179   0.249  0.00  0.00     0.003 A 
ATOM      5  C4  UNL d   1      -0.980   0.118   0.388  0.00  0.00    -0.005 A 
ATOM      6  C5  UNL d   1      -0.499  -1.166   0.632  0.00  0.00     0.003 A 
ATOM      7  C6  UNL d   1       0.875  -1.390   0.737  0.00  0.00    -0.001 A 
ENDROOT
TORSDOF 0
ENDMDL
