MODEL 1
REMARK minimizedAffinity -4.36629152
REMARK minimizedRMSD -1
REMARK  0 active torsions:
REMARK  status: ('A' for Active; 'I' for Inactive)
ROOT
ATOM      1  C   UNL d   1       1.191  -0.031   0.199  0.00  0.00     0.078 C 
ATOM      2  C1  UNL d   1      -0.099   0.122  -0.550  0.00  0.00    -0.077 A 
ATOM      3  C2  UNL d   1      -1.303  -0.356  -0.017  0.00  0.00    -0.001 A 
ATOM      4  C3  UNL d   1      -2.495  -0.215  -0.730  0.00  0.00     0.003 A 
ATOM      5  C4  UNL d   1      -2.495   0.403  -1.979  0.00  0.00    -0.005 A 
ATOM      6  C5  UNL d   1      -1.302   0.880  -2.517  0.00  0.00     0.003 A 
ATOM      7  C6  UNL d   1      -0.109   0.740  -1.807  0.00  0.00    -0.001 A 
ENDROOT
TORSDOF 0
ENDMDL
