MODEL 1
REMARK minimizedAffinity -5.27905369
REMARK minimizedRMSD -1
REMARK  0 active torsions:
REMARK  status: ('A' for Active; 'I' for Inactive)
ROOT
ATOM      1  C   UNL d   1      -1.283  -0.069  -0.578  0.00  0.00     0.078 C 
ATOM      2  C1  UNL d   1       0.076  -0.045   0.055  0.00  0.00    -0.077 A 
ATOM      3  C2  UNL d   1       0.543   1.098   0.716  0.00  0.00    -0.001 A 
ATOM      4  C3  UNL d   1       1.814   1.111   1.292  0.00  0.00     0.003 A 
ATOM      5  C4  UNL d   1       2.629  -0.017   1.213  0.00  0.00    -0.005 A 
ATOM      6  C5  UNL d   1       2.174  -1.158   0.556  0.00  0.00     0.003 A 
ATOM      7  C6  UNL d   1       0.903  -1.172  -0.021  0.00  0.00    -0.001 A 
ENDROOT
TORSDOF 0
ENDMDL
