MODEL 1
REMARK minimizedAffinity -5.38131189
REMARK minimizedRMSD -1
REMARK  0 active torsions:
REMARK  status: ('A' for Active; 'I' for Inactive)
ROOT
ATOM      1  C1  DEN d   1       0.659   1.305   0.750  0.00  0.00     0.130 A 
ATOM      2  C2  DEN d   1      -0.697   1.497   0.241  0.00  0.00    -0.031 A 
ATOM      3  C3  DEN d   1      -1.091   0.270  -0.480  0.00  0.00     0.027 A 
ATOM      4  C4  DEN d   1       0.256  -1.897  -0.853  0.00  0.00     0.027 A 
ATOM      5  C5  DEN d   1       1.460  -2.525  -0.620  0.00  0.00    -0.003 A 
ATOM      6  C6  DEN d   1       2.485  -1.913   0.052  0.00  0.00     0.001 A 
ATOM      7  C7  DEN d   1       2.309  -0.650   0.553  0.00  0.00     0.017 A 
ATOM      8  C8  DEN d   1       1.101  -0.008   0.315  0.00  0.00    -0.094 A 
ATOM      9  C9  DEN d   1       0.073  -0.648  -0.355  0.00  0.00    -0.072 A 
ENDROOT
TORSDOF 0
ENDMDL
