MODEL 1
REMARK minimizedAffinity -2.53273511
REMARK minimizedRMSD -1
REMARK  0 active torsions:
REMARK  status: ('A' for Active; 'I' for Inactive)
ROOT
ATOM      1  C1  DEN d   1      -3.103  -0.455   1.795  0.00  0.00     0.130 A 
ATOM      2  C2  DEN d   1      -4.008   0.691   1.751  0.00  0.00    -0.031 A 
ATOM      3  C3  DEN d   1      -3.403   1.717   0.878  0.00  0.00     0.027 A 
ATOM      4  C4  DEN d   1      -1.167   1.641  -0.407  0.00  0.00     0.027 A 
ATOM      5  C5  DEN d   1      -0.049   0.882  -0.669  0.00  0.00    -0.003 A 
ATOM      6  C6  DEN d   1       0.145  -0.352  -0.107  0.00  0.00     0.001 A 
ATOM      7  C7  DEN d   1      -0.817  -0.883   0.712  0.00  0.00     0.017 A 
ATOM      8  C8  DEN d   1      -1.944  -0.120   0.987  0.00  0.00    -0.094 A 
ATOM      9  C9  DEN d   1      -2.127   1.120   0.399  0.00  0.00    -0.072 A 
ENDROOT
TORSDOF 0
ENDMDL
