MODEL 1
REMARK minimizedAffinity 0.241261557
REMARK minimizedRMSD -1
REMARK  0 active torsions:
REMARK  status: ('A' for Active; 'I' for Inactive)
ROOT
ATOM      1  C1  DEN d   1       1.240   1.672   0.292  0.00  0.00     0.130 A 
ATOM      2  C2  DEN d   1      -0.082   2.132  -0.122  0.00  0.00    -0.031 A 
ATOM      3  C3  DEN d   1      -0.821   0.972  -0.661  0.00  0.00     0.027 A 
ATOM      4  C4  DEN d   1      -0.051  -1.478  -0.890  0.00  0.00     0.027 A 
ATOM      5  C5  DEN d   1       0.996  -2.350  -0.686  0.00  0.00    -0.003 A 
ATOM      6  C6  DEN d   1       2.199  -1.939  -0.177  0.00  0.00     0.001 A 
ATOM      7  C7  DEN d   1       2.371  -0.630   0.187  0.00  0.00     0.017 A 
ATOM      8  C8  DEN d   1       1.322   0.257  -0.023  0.00  0.00    -0.094 A 
ATOM      9  C9  DEN d   1       0.109  -0.181  -0.527  0.00  0.00    -0.072 A 
ENDROOT
TORSDOF 0
ENDMDL
