MODEL 1
REMARK minimizedAffinity -3.99859428
REMARK minimizedRMSD -1
REMARK  0 active torsions:
REMARK  status: ('A' for Active; 'I' for Inactive)
ROOT
ATOM      1  C1  DEN d   1       0.749   1.786   0.244  0.00  0.00     0.130 A 
ATOM      2  C2  DEN d   1      -0.514   1.998  -0.457  0.00  0.00    -0.031 A 
ATOM      3  C3  DEN d   1      -0.968   0.695  -0.983  0.00  0.00     0.027 A 
ATOM      4  C4  DEN d   1       0.153  -1.619  -0.777  0.00  0.00     0.027 A 
ATOM      5  C5  DEN d   1       1.245  -2.297  -0.282  0.00  0.00    -0.003 A 
ATOM      6  C6  DEN d   1       2.257  -1.661   0.388  0.00  0.00     0.001 A 
ATOM      7  C7  DEN d   1       2.175  -0.314   0.621  0.00  0.00     0.017 A 
ATOM      8  C8  DEN d   1       1.081   0.378   0.119  0.00  0.00    -0.094 A 
ATOM      9  C9  DEN d   1       0.063  -0.285  -0.546  0.00  0.00    -0.072 A 
ENDROOT
TORSDOF 0
ENDMDL
