MODEL 1
REMARK minimizedAffinity 4.9443903
REMARK minimizedRMSD -1
REMARK  0 active torsions:
REMARK  status: ('A' for Active; 'I' for Inactive)
ROOT
ATOM      1  C1  DEN d   1      -0.682  -0.752  -1.903  0.00  0.00     0.130 A 
ATOM      2  C2  DEN d   1      -1.239  -0.802  -0.554  0.00  0.00    -0.031 A 
ATOM      3  C3  DEN d   1      -0.256  -1.470   0.322  0.00  0.00     0.027 A 
ATOM      4  C4  DEN d   1       2.065  -2.423  -0.275  0.00  0.00     0.027 A 
ATOM      5  C5  DEN d   1       2.967  -2.624  -1.296  0.00  0.00    -0.003 A 
ATOM      6  C6  DEN d   1       2.704  -2.249  -2.587  0.00  0.00     0.001 A 
ATOM      7  C7  DEN d   1       1.528  -1.612  -2.883  0.00  0.00     0.017 A 
ATOM      8  C8  DEN d   1       0.610  -1.412  -1.860  0.00  0.00    -0.094 A 
ATOM      9  C9  DEN d   1       0.900  -1.787  -0.559  0.00  0.00    -0.072 A 
ENDROOT
TORSDOF 0
ENDMDL
