MODEL 1
REMARK minimizedAffinity -5.38578176
REMARK minimizedRMSD -1
REMARK  1 active torsions:
REMARK  status: ('A' for Active; 'I' for Inactive)
REMARK    1  A    between atoms: C1_2  and  C2_3 
ROOT
ATOM      1  C2  UNL d   1      -1.090   0.462   0.388  0.00  0.00    -0.081 A 
ATOM      2  C3  UNL d   1      -2.273   0.563   1.131  0.00  0.00     0.006 A 
ATOM      3  C4  UNL d   1      -2.812  -0.563   1.758  0.00  0.00     0.002 A 
ATOM      4  C5  UNL d   1      -2.175  -1.804   1.660  0.00  0.00    -0.080 A 
ATOM      5  C6  UNL d   1      -2.727  -3.014   2.354  0.00  0.00     0.076 C 
ATOM      6  C7  UNL d   1      -1.003  -1.908   0.903  0.00  0.00     0.002 A 
ATOM      7  C8  UNL d   1      -0.463  -0.783   0.275  0.00  0.00     0.006 A 
ENDROOT
BRANCH   1   8
ATOM      8  C1  UNL d   1      -0.471   1.687  -0.236  0.00  0.00     0.054 C 
ATOM      9  C   UNL d   1       0.945   1.407  -0.717  0.00  0.00     0.018 C 
ENDBRANCH   1   8
TORSDOF 1
ENDMDL
