MODEL 1
REMARK minimizedAffinity -4.88093615
REMARK minimizedRMSD -1
REMARK  1 active torsions:
REMARK  status: ('A' for Active; 'I' for Inactive)
REMARK    1  A    between atoms: C1_2  and  C2_3 
ROOT
ATOM      1  C2  UNL d   1      -0.140   0.022   0.326  0.00  0.00    -0.081 A 
ATOM      2  C3  UNL d   1       0.298  -1.298   0.492  0.00  0.00     0.006 A 
ATOM      3  C4  UNL d   1      -0.514  -2.238   1.131  0.00  0.00     0.002 A 
ATOM      4  C5  UNL d   1      -1.779  -1.877   1.607  0.00  0.00    -0.080 A 
ATOM      5  C6  UNL d   1      -2.672  -2.884   2.268  0.00  0.00     0.076 C 
ATOM      6  C7  UNL d   1      -2.210  -0.555   1.456  0.00  0.00     0.002 A 
ATOM      7  C8  UNL d   1      -1.399   0.386   0.818  0.00  0.00     0.006 A 
ENDROOT
BRANCH   1   8
ATOM      8  C1  UNL d   1       0.705   1.022  -0.421  0.00  0.00     0.054 C 
ATOM      9  C   UNL d   1       0.266   1.145  -1.872  0.00  0.00     0.018 C 
ENDBRANCH   1   8
TORSDOF 1
ENDMDL
