MODEL 1
REMARK minimizedAffinity -5.15683079
REMARK minimizedRMSD -1
REMARK  1 active torsions:
REMARK  status: ('A' for Active; 'I' for Inactive)
REMARK    1  A    between atoms: C1_2  and  C2_3 
ROOT
ATOM      1  C2  UNL d   1      -2.046  -0.585   1.774  0.00  0.00    -0.081 A 
ATOM      2  C3  UNL d   1      -1.488  -1.867   1.847  0.00  0.00     0.006 A 
ATOM      3  C4  UNL d   1      -0.332  -2.179   1.128  0.00  0.00     0.002 A 
ATOM      4  C5  UNL d   1       0.291  -1.212   0.332  0.00  0.00    -0.080 A 
ATOM      5  C6  UNL d   1       1.550  -1.524  -0.421  0.00  0.00     0.076 C 
ATOM      6  C7  UNL d   1      -0.275   0.064   0.245  0.00  0.00     0.002 A 
ATOM      7  C8  UNL d   1      -1.432   0.376   0.963  0.00  0.00     0.006 A 
ENDROOT
BRANCH   1   8
ATOM      8  C1  UNL d   1      -3.256  -0.227   2.598  0.00  0.00     0.054 C 
ATOM      9  C   UNL d   1      -2.871   0.102   4.033  0.00  0.00     0.018 C 
ENDBRANCH   1   8
TORSDOF 1
ENDMDL
