MODEL 1
REMARK minimizedAffinity -3.24056935
REMARK minimizedRMSD -1
REMARK  1 active torsions:
REMARK  status: ('A' for Active; 'I' for Inactive)
REMARK    1  A    between atoms: C1_2  and  C2_3 
ROOT
ATOM      1  C2  UNL d   1      -0.197   0.440   0.474  0.00  0.00    -0.081 A 
ATOM      2  C3  UNL d   1       0.253  -0.885   0.425  0.00  0.00     0.006 A 
ATOM      3  C4  UNL d   1      -0.496  -1.910   1.009  0.00  0.00     0.002 A 
ATOM      4  C5  UNL d   1      -1.710  -1.628   1.644  0.00  0.00    -0.080 A 
ATOM      5  C6  UNL d   1      -2.539  -2.723   2.248  0.00  0.00     0.076 C 
ATOM      6  C7  UNL d   1      -2.152  -0.302   1.709  0.00  0.00     0.002 A 
ATOM      7  C8  UNL d   1      -1.403   0.723   1.126  0.00  0.00     0.006 A 
ENDROOT
BRANCH   1   8
ATOM      8  C1  UNL d   1       0.576   1.538  -0.210  0.00  0.00     0.054 C 
ATOM      9  C   UNL d   1       0.243   1.606  -1.694  0.00  0.00     0.018 C 
ENDBRANCH   1   8
TORSDOF 1
ENDMDL
