MODEL 1
REMARK minimizedAffinity -5.51976442
REMARK minimizedRMSD -1
REMARK  1 active torsions:
REMARK  status: ('A' for Active; 'I' for Inactive)
REMARK    1  A    between atoms: C1_2  and  C2_3 
ROOT
ATOM      1  C2  UNL d   1      -0.177   0.414   0.290  0.00  0.00    -0.081 A 
ATOM      2  C3  UNL d   1      -1.392   0.751   0.900  0.00  0.00     0.006 A 
ATOM      3  C4  UNL d   1      -2.251  -0.247   1.366  0.00  0.00     0.002 A 
ATOM      4  C5  UNL d   1      -1.907  -1.597   1.236  0.00  0.00    -0.080 A 
ATOM      5  C6  UNL d   1      -2.807  -2.677   1.759  0.00  0.00     0.076 C 
ATOM      6  C7  UNL d   1      -0.702  -1.934   0.610  0.00  0.00     0.002 A 
ATOM      7  C8  UNL d   1       0.157  -0.937   0.144  0.00  0.00     0.006 A 
ENDROOT
BRANCH   1   8
ATOM      8  C1  UNL d   1       0.781   1.489  -0.155  0.00  0.00     0.054 C 
ATOM      9  C   UNL d   1       0.614   1.801  -1.636  0.00  0.00     0.018 C 
ENDBRANCH   1   8
TORSDOF 1
ENDMDL
