MODEL 1
REMARK minimizedAffinity -3.8749516
REMARK minimizedRMSD -1
REMARK  1 active torsions:
REMARK  status: ('A' for Active; 'I' for Inactive)
REMARK    1  A    between atoms: C1_2  and  C2_3 
ROOT
ATOM      1  C2  UNL d   1      -1.107  -1.286   1.451  0.00  0.00    -0.081 A 
ATOM      2  C3  UNL d   1      -1.932  -0.447   0.692  0.00  0.00     0.006 A 
ATOM      3  C4  UNL d   1      -1.382   0.402  -0.272  0.00  0.00     0.002 A 
ATOM      4  C5  UNL d   1      -0.002   0.420  -0.498  0.00  0.00    -0.080 A 
ATOM      5  C6  UNL d   1       0.598   1.304  -1.551  0.00  0.00     0.076 C 
ATOM      6  C7  UNL d   1       0.824  -0.406   0.273  0.00  0.00     0.002 A 
ATOM      7  C8  UNL d   1       0.275  -1.254   1.237  0.00  0.00     0.006 A 
ENDROOT
BRANCH   1   8
ATOM      8  C1  UNL d   1      -1.703  -2.249   2.446  0.00  0.00     0.054 C 
ATOM      9  C   UNL d   1      -2.828  -3.063   1.823  0.00  0.00     0.018 C 
ENDBRANCH   1   8
TORSDOF 1
ENDMDL
