MODEL 1
REMARK minimizedAffinity -3.38485432
REMARK minimizedRMSD -1
REMARK  1 active torsions:
REMARK  status: ('A' for Active; 'I' for Inactive)
REMARK    1  A    between atoms: C1_2  and  C2_3 
ROOT
ATOM      1  C2  UNL d   1      -0.217   1.408  -0.305  0.00  0.00    -0.081 A 
ATOM      2  C3  UNL d   1       0.467   0.202  -0.498  0.00  0.00     0.006 A 
ATOM      3  C4  UNL d   1       0.106  -0.940   0.221  0.00  0.00     0.002 A 
ATOM      4  C5  UNL d   1      -0.949  -0.896   1.139  0.00  0.00    -0.080 A 
ATOM      5  C6  UNL d   1      -1.366  -2.122   1.896  0.00  0.00     0.076 C 
ATOM      6  C7  UNL d   1      -1.621   0.313   1.345  0.00  0.00     0.002 A 
ATOM      7  C8  UNL d   1      -1.260   1.455   0.626  0.00  0.00     0.006 A 
ENDROOT
BRANCH   1   8
ATOM      8  C1  UNL d   1       0.128   2.624  -1.127  0.00  0.00     0.054 C 
ATOM      9  C   UNL d   1      -0.046   2.354  -2.615  0.00  0.00     0.018 C 
ENDBRANCH   1   8
TORSDOF 1
ENDMDL
