MODEL 1
REMARK minimizedAffinity -1.45195174
REMARK minimizedRMSD -1
REMARK  1 active torsions:
REMARK  status: ('A' for Active; 'I' for Inactive)
REMARK    1  A    between atoms: C1_2  and  C2_3 
ROOT
ATOM      1  C2  UNL d   1       0.197  -0.216  -0.327  0.00  0.00    -0.081 A 
ATOM      2  C3  UNL d   1      -1.079  -0.402  -0.873  0.00  0.00     0.006 A 
ATOM      3  C4  UNL d   1      -2.021  -1.197  -0.217  0.00  0.00     0.002 A 
ATOM      4  C5  UNL d   1      -1.706  -1.814   0.999  0.00  0.00    -0.080 A 
ATOM      5  C6  UNL d   1      -2.719  -2.646   1.729  0.00  0.00     0.076 C 
ATOM      6  C7  UNL d   1      -0.426  -1.643   1.536  0.00  0.00     0.002 A 
ATOM      7  C8  UNL d   1       0.517  -0.848   0.880  0.00  0.00     0.006 A 
ENDROOT
BRANCH   1   8
ATOM      8  C1  UNL d   1       1.194   0.693  -0.999  0.00  0.00     0.054 C 
ATOM      9  C   UNL d   1       0.573   1.410  -2.190  0.00  0.00     0.018 C 
ENDBRANCH   1   8
TORSDOF 1
ENDMDL
