MODEL 1
REMARK minimizedAffinity -5.08918381
REMARK minimizedRMSD -1
REMARK  1 active torsions:
REMARK  status: ('A' for Active; 'I' for Inactive)
REMARK    1  A    between atoms: C1_2  and  C2_3 
ROOT
ATOM      1  C2  UNL d   1      -0.161  -0.314   0.648  0.00  0.00    -0.081 A 
ATOM      2  C3  UNL d   1      -1.502  -0.100   0.307  0.00  0.00     0.006 A 
ATOM      3  C4  UNL d   1      -2.496  -0.969   0.762  0.00  0.00     0.002 A 
ATOM      4  C5  UNL d   1      -2.167  -2.062   1.572  0.00  0.00    -0.080 A 
ATOM      5  C6  UNL d   1      -3.229  -2.985   2.092  0.00  0.00     0.076 C 
ATOM      6  C7  UNL d   1      -0.826  -2.286   1.898  0.00  0.00     0.002 A 
ATOM      7  C8  UNL d   1       0.169  -1.418   1.443  0.00  0.00     0.006 A 
ENDROOT
BRANCH   1   8
ATOM      8  C1  UNL d   1       0.906   0.658   0.213  0.00  0.00     0.054 C 
ATOM      9  C   UNL d   1       0.473   1.438  -1.020  0.00  0.00     0.018 C 
ENDBRANCH   1   8
TORSDOF 1
ENDMDL
