MODEL 1
REMARK minimizedAffinity 6.4450798
REMARK minimizedRMSD -1
REMARK  1 active torsions:
REMARK  status: ('A' for Active; 'I' for Inactive)
REMARK    1  A    between atoms: C1_2  and  C2_3 
ROOT
ATOM      1  C2  UNL d   1       1.359   0.530  -1.118  0.00  0.00    -0.081 A 
ATOM      2  C3  UNL d   1       0.287   0.887  -0.291  0.00  0.00     0.006 A 
ATOM      3  C4  UNL d   1      -0.153   0.021   0.712  0.00  0.00     0.002 A 
ATOM      4  C5  UNL d   1       0.475  -1.214   0.910  0.00  0.00    -0.080 A 
ATOM      5  C6  UNL d   1       0.032  -2.140   2.003  0.00  0.00     0.076 C 
ATOM      6  C7  UNL d   1       1.534  -1.579   0.072  0.00  0.00     0.002 A 
ATOM      7  C8  UNL d   1       1.974  -0.713  -0.932  0.00  0.00     0.006 A 
ENDROOT
BRANCH   1   8
ATOM      8  C1  UNL d   1       1.877   1.489  -2.159  0.00  0.00     0.054 C 
ATOM      9  C   UNL d   1       0.751   2.014  -3.038  0.00  0.00     0.018 C 
ENDBRANCH   1   8
TORSDOF 1
ENDMDL
