MODEL 1
REMARK minimizedAffinity -5.05521393
REMARK minimizedRMSD -1
REMARK  1 active torsions:
REMARK  status: ('A' for Active; 'I' for Inactive)
REMARK    1  A    between atoms: C1_2  and  C2_3 
ROOT
ATOM      1  C2  UNL d   1      -0.116   0.237   0.368  0.00  0.00    -0.081 A 
ATOM      2  C3  UNL d   1      -1.430   0.546   0.739  0.00  0.00     0.006 A 
ATOM      3  C4  UNL d   1      -2.276  -0.445   1.242  0.00  0.00     0.002 A 
ATOM      4  C5  UNL d   1      -1.820  -1.759   1.389  0.00  0.00    -0.080 A 
ATOM      5  C6  UNL d   1      -2.708  -2.827   1.956  0.00  0.00     0.076 C 
ATOM      6  C7  UNL d   1      -0.513  -2.072   1.002  0.00  0.00     0.002 A 
ATOM      7  C8  UNL d   1       0.333  -1.081   0.498  0.00  0.00     0.006 A 
ENDROOT
BRANCH   1   8
ATOM      8  C1  UNL d   1       0.819   1.317  -0.114  0.00  0.00     0.054 C 
ATOM      9  C   UNL d   1       0.521   1.704  -1.556  0.00  0.00     0.018 C 
ENDBRANCH   1   8
TORSDOF 1
ENDMDL
