MODEL 1
REMARK minimizedAffinity -4.57391834
REMARK minimizedRMSD -1
REMARK  0 active torsions:
REMARK  status: ('A' for Active; 'I' for Inactive)
ROOT
ATOM      1  C   UNL d   1       3.157  -0.499   0.654  0.00  0.00     0.020 A 
ATOM      2  C1  UNL d   1       2.166  -1.473   0.541  0.00  0.00     0.020 A 
ATOM      3  C2  UNL d   1       0.852  -1.102   0.249  0.00  0.00     0.034 A 
ATOM      4  C3  UNL d   1       0.525   0.246   0.069  0.00  0.00     0.017 A 
ATOM      5  C4  UNL d   1       1.520   1.224   0.182  0.00  0.00     0.017 A 
ATOM      6  C5  UNL d   1       2.834   0.847   0.475  0.00  0.00     0.034 A 
ATOM      7 Cl   UNL d   1       1.193   2.908  -0.026  0.00  0.00    -0.070 Cl
ATOM      8 Cl1  UNL d   1      -1.120   0.633  -0.290  0.00  0.00    -0.070 Cl
ENDROOT
TORSDOF 0
ENDMDL
