MODEL 1
REMARK minimizedAffinity -5.02087402
REMARK minimizedRMSD -1
REMARK  0 active torsions:
REMARK  status: ('A' for Active; 'I' for Inactive)
ROOT
ATOM      1  C   UNL d   1       2.884   0.743   0.681  0.00  0.00     0.020 A 
ATOM      2  C1  UNL d   1       2.115   1.817   0.233  0.00  0.00     0.020 A 
ATOM      3  C2  UNL d   1       0.763   1.632  -0.062  0.00  0.00     0.034 A 
ATOM      4  C3  UNL d   1       0.175   0.372   0.090  0.00  0.00     0.017 A 
ATOM      5  C4  UNL d   1       0.947  -0.706   0.540  0.00  0.00     0.017 A 
ATOM      6  C5  UNL d   1       2.301  -0.515   0.834  0.00  0.00     0.034 A 
ATOM      7 Cl   UNL d   1       0.292  -2.291   0.753  0.00  0.00    -0.070 Cl
ATOM      8 Cl1  UNL d   1      -1.503   0.216  -0.293  0.00  0.00    -0.070 Cl
ENDROOT
TORSDOF 0
ENDMDL
