MODEL 1
REMARK minimizedAffinity -3.48865008
REMARK minimizedRMSD -1
REMARK  0 active torsions:
REMARK  status: ('A' for Active; 'I' for Inactive)
ROOT
ATOM      1  C   UNL d   1       3.059   0.361   0.502  0.00  0.00     0.020 A 
ATOM      2  C1  UNL d   1       2.414  -0.835   0.188  0.00  0.00     0.020 A 
ATOM      3  C2  UNL d   1       1.027  -0.859   0.027  0.00  0.00     0.034 A 
ATOM      4  C3  UNL d   1       0.280   0.315   0.181  0.00  0.00     0.017 A 
ATOM      5  C4  UNL d   1       0.928   1.515   0.497  0.00  0.00     0.017 A 
ATOM      6  C5  UNL d   1       2.317   1.533   0.657  0.00  0.00     0.034 A 
ATOM      7 Cl   UNL d   1       0.075   3.003   0.703  0.00  0.00    -0.070 Cl
ATOM      8 Cl1  UNL d   1      -1.432   0.212  -0.032  0.00  0.00    -0.070 Cl
ENDROOT
TORSDOF 0
ENDMDL
