MODEL 1
REMARK minimizedAffinity -5.82617331
REMARK minimizedRMSD -1
REMARK  0 active torsions:
REMARK  status: ('A' for Active; 'I' for Inactive)
ROOT
ATOM      1  C   UNL d   1       2.714  -0.025   0.216  0.00  0.00     0.020 A 
ATOM      2  C1  UNL d   1       2.628  -1.084   1.120  0.00  0.00     0.020 A 
ATOM      3  C2  UNL d   1       1.385  -1.643   1.423  0.00  0.00     0.034 A 
ATOM      4  C3  UNL d   1       0.223  -1.145   0.822  0.00  0.00     0.017 A 
ATOM      5  C4  UNL d   1       0.311  -0.083  -0.086  0.00  0.00     0.017 A 
ATOM      6  C5  UNL d   1       1.558   0.473  -0.385  0.00  0.00     0.034 A 
ATOM      7 Cl   UNL d   1      -1.078   0.585  -0.867  0.00  0.00    -0.070 Cl
ATOM      8 Cl1  UNL d   1      -1.280  -1.886   1.243  0.00  0.00    -0.070 Cl
ENDROOT
TORSDOF 0
ENDMDL
