MODEL 1
REMARK minimizedAffinity -3.95685911
REMARK minimizedRMSD -1
REMARK  0 active torsions:
REMARK  status: ('A' for Active; 'I' for Inactive)
ROOT
ATOM      1  C   UNL d   1       3.141  -0.368   1.082  0.00  0.00     0.020 A 
ATOM      2  C1  UNL d   1       2.295  -1.443   0.813  0.00  0.00     0.020 A 
ATOM      3  C2  UNL d   1       1.025  -1.217   0.278  0.00  0.00     0.034 A 
ATOM      4  C3  UNL d   1       0.597   0.089   0.011  0.00  0.00     0.017 A 
ATOM      5  C4  UNL d   1       1.446   1.168   0.282  0.00  0.00     0.017 A 
ATOM      6  C5  UNL d   1       2.717   0.935   0.817  0.00  0.00     0.034 A 
ATOM      7 Cl   UNL d   1       0.988   2.807  -0.021  0.00  0.00    -0.070 Cl
ATOM      8 Cl1  UNL d   1      -0.986   0.296  -0.650  0.00  0.00    -0.070 Cl
ENDROOT
TORSDOF 0
ENDMDL
