MODEL 1
REMARK minimizedAffinity -5.45955324
REMARK minimizedRMSD -1
REMARK  0 active torsions:
REMARK  status: ('A' for Active; 'I' for Inactive)
ROOT
ATOM      1  C   UNL d   1      -0.357  -0.538  -0.684  0.00  0.00     0.020 A 
ATOM      2  C1  UNL d   1      -0.659   0.812  -0.510  0.00  0.00     0.020 A 
ATOM      3  C2  UNL d   1       0.249   1.655   0.134  0.00  0.00     0.034 A 
ATOM      4  C3  UNL d   1       1.465   1.148   0.607  0.00  0.00     0.017 A 
ATOM      5  C4  UNL d   1       1.768  -0.207   0.432  0.00  0.00     0.017 A 
ATOM      6  C5  UNL d   1       0.855  -1.046  -0.213  0.00  0.00     0.034 A 
ATOM      7 Cl   UNL d   1       3.248  -0.905   0.989  0.00  0.00    -0.070 Cl
ATOM      8 Cl1  UNL d   1       2.542   2.247   1.394  0.00  0.00    -0.070 Cl
ENDROOT
TORSDOF 0
ENDMDL
