MODEL 1
REMARK minimizedAffinity 3.84840107
REMARK minimizedRMSD -1
REMARK  0 active torsions:
REMARK  status: ('A' for Active; 'I' for Inactive)
ROOT
ATOM      1  C   UNL d   1       3.856   1.134  -0.439  0.00  0.00     0.020 A 
ATOM      2  C1  UNL d   1       4.134  -0.228  -0.341  0.00  0.00     0.020 A 
ATOM      3  C2  UNL d   1       3.273  -1.067   0.371  0.00  0.00     0.034 A 
ATOM      4  C3  UNL d   1       2.130  -0.543   0.987  0.00  0.00     0.017 A 
ATOM      5  C4  UNL d   1       1.852   0.825   0.887  0.00  0.00     0.017 A 
ATOM      6  C5  UNL d   1       2.718   1.660   0.174  0.00  0.00     0.034 A 
ATOM      7 Cl   UNL d   1       0.462   1.544   1.620  0.00  0.00    -0.070 Cl
ATOM      8 Cl1  UNL d   1       1.110  -1.638   1.850  0.00  0.00    -0.070 Cl
ENDROOT
TORSDOF 0
ENDMDL
