MODEL 1
REMARK minimizedAffinity -3.00395179
REMARK minimizedRMSD -1
REMARK  0 active torsions:
REMARK  status: ('A' for Active; 'I' for Inactive)
ROOT
ATOM      1  C   UNL d   1       2.319   1.446   0.802  0.00  0.00     0.020 A 
ATOM      2  C1  UNL d   1       1.340   2.186   0.142  0.00  0.00     0.020 A 
ATOM      3  C2  UNL d   1       0.085   1.624  -0.103  0.00  0.00     0.034 A 
ATOM      4  C3  UNL d   1      -0.193   0.317   0.314  0.00  0.00     0.017 A 
ATOM      5  C4  UNL d   1       0.791  -0.426   0.977  0.00  0.00     0.017 A 
ATOM      6  C5  UNL d   1       2.045   0.142   1.219  0.00  0.00     0.034 A 
ATOM      7 Cl   UNL d   1       0.521  -2.044   1.521  0.00  0.00    -0.070 Cl
ATOM      8 Cl1  UNL d   1      -1.766  -0.315  -0.021  0.00  0.00    -0.070 Cl
ENDROOT
TORSDOF 0
ENDMDL
