MODEL 1
REMARK minimizedAffinity 4.52455187
REMARK minimizedRMSD -1
REMARK  0 active torsions:
REMARK  status: ('A' for Active; 'I' for Inactive)
ROOT
ATOM      1  C   UNL d   1       1.867   3.098  -0.044  0.00  0.00     0.020 A 
ATOM      2  C1  UNL d   1       2.775   3.026   1.011  0.00  0.00     0.020 A 
ATOM      3  C2  UNL d   1       2.666   2.006   1.958  0.00  0.00     0.034 A 
ATOM      4  C3  UNL d   1       1.646   1.053   1.852  0.00  0.00     0.017 A 
ATOM      5  C4  UNL d   1       0.734   1.126   0.792  0.00  0.00     0.017 A 
ATOM      6  C5  UNL d   1       0.849   2.150  -0.153  0.00  0.00     0.034 A 
ATOM      7 Cl   UNL d   1      -0.551  -0.013   0.595  0.00  0.00    -0.070 Cl
ATOM      8 Cl1  UNL d   1       1.570  -0.181   3.059  0.00  0.00    -0.070 Cl
ENDROOT
TORSDOF 0
ENDMDL
