MODEL 1
REMARK minimizedAffinity -3.65058827
REMARK minimizedRMSD -1
REMARK  0 active torsions:
REMARK  status: ('A' for Active; 'I' for Inactive)
ROOT
ATOM      1  C   UNL d   1       1.074  -0.208   0.358  0.00  0.00     0.172 C 
ATOM      2  N   UNL d   1      -0.209   0.421   0.565  0.00  0.00    -0.070 N 
ATOM      3  C1  UNL d   1      -0.743   0.765   1.778  0.00  0.00    -0.004 A 
ATOM      4  C2  UNL d   1      -1.975   1.339   1.549  0.00  0.00    -0.047 A 
ATOM      5  C3  UNL d   1      -2.189   1.339   0.150  0.00  0.00    -0.047 A 
ATOM      6  C4  UNL d   1      -1.080   0.765  -0.435  0.00  0.00    -0.004 A 
ENDROOT
TORSDOF 0
ENDMDL
