MODEL 1
REMARK minimizedAffinity -3.88173914
REMARK minimizedRMSD -1
REMARK  0 active torsions:
REMARK  status: ('A' for Active; 'I' for Inactive)
ROOT
ATOM      1  C   UNL d   1       0.089  -0.588  -0.944  0.00  0.00     0.172 C 
ATOM      2  N   UNL d   1      -0.453   0.262   0.090  0.00  0.00    -0.070 N 
ATOM      3  C1  UNL d   1      -0.217   0.134   1.433  0.00  0.00    -0.004 A 
ATOM      4  C2  UNL d   1      -0.911   1.133   2.080  0.00  0.00    -0.047 A 
ATOM      5  C3  UNL d   1      -1.589   1.886   1.092  0.00  0.00    -0.047 A 
ATOM      6  C4  UNL d   1      -1.288   1.325  -0.131  0.00  0.00    -0.004 A 
ENDROOT
TORSDOF 0
ENDMDL
