MODEL 1
REMARK minimizedAffinity -3.21311641
REMARK minimizedRMSD -1
REMARK  0 active torsions:
REMARK  status: ('A' for Active; 'I' for Inactive)
ROOT
ATOM      1  C   UNL d   1      -1.577   2.206   1.608  0.00  0.00     0.172 C 
ATOM      2  N   UNL d   1      -0.823   1.217   0.874  0.00  0.00    -0.070 N 
ATOM      3  C1  UNL d   1      -0.421  -0.000   1.355  0.00  0.00    -0.004 A 
ATOM      4  C2  UNL d   1       0.270  -0.644   0.352  0.00  0.00    -0.047 A 
ATOM      5  C3  UNL d   1       0.284   0.216  -0.772  0.00  0.00    -0.047 A 
ATOM      6  C4  UNL d   1      -0.399   1.361  -0.421  0.00  0.00    -0.004 A 
ENDROOT
TORSDOF 0
ENDMDL
