MODEL 1
REMARK minimizedAffinity -4.01384735
REMARK minimizedRMSD -1
REMARK  0 active torsions:
REMARK  status: ('A' for Active; 'I' for Inactive)
ROOT
ATOM      1  C   UNL d   1       0.866  -0.159  -0.794  0.00  0.00     0.172 C 
ATOM      2  N   UNL d   1      -0.068   0.463   0.115  0.00  0.00    -0.070 N 
ATOM      3  C1  UNL d   1      -0.840   1.560  -0.161  0.00  0.00    -0.004 A 
ATOM      4  C2  UNL d   1      -1.592   1.839   0.960  0.00  0.00    -0.047 A 
ATOM      5  C3  UNL d   1      -1.260   0.878   1.944  0.00  0.00    -0.047 A 
ATOM      6  C4  UNL d   1      -0.314   0.038   1.394  0.00  0.00    -0.004 A 
ENDROOT
TORSDOF 0
ENDMDL
