MODEL 1
REMARK minimizedAffinity -3.87016439
REMARK minimizedRMSD -1
REMARK  0 active torsions:
REMARK  status: ('A' for Active; 'I' for Inactive)
ROOT
ATOM      1  C   UNL d   1       0.467  -0.840  -0.553  0.00  0.00     0.172 C 
ATOM      2  N   UNL d   1      -0.308   0.100   0.223  0.00  0.00    -0.070 N 
ATOM      3  C1  UNL d   1      -0.463   0.077   1.583  0.00  0.00    -0.004 A 
ATOM      4  C2  UNL d   1      -1.271   1.137   1.934  0.00  0.00    -0.047 A 
ATOM      5  C3  UNL d   1      -1.615   1.820   0.743  0.00  0.00    -0.047 A 
ATOM      6  C4  UNL d   1      -1.005   1.157  -0.301  0.00  0.00    -0.004 A 
ENDROOT
TORSDOF 0
ENDMDL
