MODEL 1
REMARK minimizedAffinity -3.51600122
REMARK minimizedRMSD -1
REMARK  0 active torsions:
REMARK  status: ('A' for Active; 'I' for Inactive)
ROOT
ATOM      1  C   UNL d   1      -0.012  -0.248   0.591  0.00  0.00     0.172 C 
ATOM      2  N   UNL d   1      -0.678   1.029   0.493  0.00  0.00    -0.070 N 
ATOM      3  C1  UNL d   1      -1.410   1.626   1.484  0.00  0.00    -0.004 A 
ATOM      4  C2  UNL d   1      -1.877   2.828   0.998  0.00  0.00    -0.047 A 
ATOM      5  C3  UNL d   1      -1.411   2.958  -0.331  0.00  0.00    -0.047 A 
ATOM      6  C4  UNL d   1      -0.671   1.830  -0.619  0.00  0.00    -0.004 A 
ENDROOT
TORSDOF 0
ENDMDL
