MODEL 1
REMARK minimizedAffinity -2.71136498
REMARK minimizedRMSD -1
REMARK  0 active torsions:
REMARK  status: ('A' for Active; 'I' for Inactive)
ROOT
ATOM      1  C   UNL d   1      -2.069   1.892   0.561  0.00  0.00     0.172 C 
ATOM      2  N   UNL d   1      -0.964   1.326  -0.176  0.00  0.00    -0.070 N 
ATOM      3  C1  UNL d   1      -0.265   1.951  -1.174  0.00  0.00    -0.004 A 
ATOM      4  C2  UNL d   1       0.706   1.081  -1.619  0.00  0.00    -0.047 A 
ATOM      5  C3  UNL d   1       0.586  -0.110  -0.863  0.00  0.00    -0.047 A 
ATOM      6  C4  UNL d   1      -0.455   0.069   0.022  0.00  0.00    -0.004 A 
ENDROOT
TORSDOF 0
ENDMDL
