MODEL 1
REMARK minimizedAffinity -3.38372946
REMARK minimizedRMSD -1
REMARK  0 active torsions:
REMARK  status: ('A' for Active; 'I' for Inactive)
ROOT
ATOM      1  C   UNL d   1       1.229  -0.473  -0.857  0.00  0.00     0.172 C 
ATOM      2  N   UNL d   1       0.232   0.002   0.073  0.00  0.00    -0.070 N 
ATOM      3  C1  UNL d   1       0.110  -0.387   1.380  0.00  0.00    -0.004 A 
ATOM      4  C2  UNL d   1      -0.958   0.293   1.925  0.00  0.00    -0.047 A 
ATOM      5  C3  UNL d   1      -1.496   1.119   0.910  0.00  0.00    -0.047 A 
ATOM      6  C4  UNL d   1      -0.741   0.919  -0.226  0.00  0.00    -0.004 A 
ENDROOT
TORSDOF 0
ENDMDL
