MODEL 1
REMARK minimizedAffinity -3.60617661
REMARK minimizedRMSD -1
REMARK  0 active torsions:
REMARK  status: ('A' for Active; 'I' for Inactive)
ROOT
ATOM      1  C   UNL d   1       0.044  -0.738  -0.749  0.00  0.00     0.172 C 
ATOM      2  N   UNL d   1      -0.506   0.272   0.123  0.00  0.00    -0.070 N 
ATOM      3  C1  UNL d   1      -0.063   0.564   1.386  0.00  0.00    -0.004 A 
ATOM      4  C2  UNL d   1      -0.846   1.583   1.883  0.00  0.00    -0.047 A 
ATOM      5  C3  UNL d   1      -1.793   1.915   0.885  0.00  0.00    -0.047 A 
ATOM      6  C4  UNL d   1      -1.560   1.088  -0.194  0.00  0.00    -0.004 A 
ENDROOT
TORSDOF 0
ENDMDL
