MODEL 1
REMARK minimizedAffinity -3.39822149
REMARK minimizedRMSD -1
REMARK  0 active torsions:
REMARK  status: ('A' for Active; 'I' for Inactive)
ROOT
ATOM      1  C   UNL d   1       0.893   0.194  -0.440  0.00  0.00     0.172 C 
ATOM      2  N   UNL d   1      -0.239   0.507   0.401  0.00  0.00    -0.070 N 
ATOM      3  C1  UNL d   1      -1.414   1.070  -0.019  0.00  0.00    -0.004 A 
ATOM      4  C2  UNL d   1      -2.234   1.207   1.081  0.00  0.00    -0.047 A 
ATOM      5  C3  UNL d   1      -1.526   0.709   2.201  0.00  0.00    -0.047 A 
ATOM      6  C4  UNL d   1      -0.294   0.283   1.752  0.00  0.00    -0.004 A 
ENDROOT
TORSDOF 0
ENDMDL
