MODEL 1
REMARK minimizedAffinity -2.56018734
REMARK minimizedRMSD -1
REMARK  0 active torsions:
REMARK  status: ('A' for Active; 'I' for Inactive)
ROOT
ATOM      1  C   UNL d   1       1.000  -0.759  -0.666  0.00  0.00     0.172 C 
ATOM      2  N   UNL d   1       0.050   0.060   0.051  0.00  0.00    -0.070 N 
ATOM      3  C1  UNL d   1       0.091   0.343   1.390  0.00  0.00    -0.004 A 
ATOM      4  C2  UNL d   1      -0.986   1.151   1.683  0.00  0.00    -0.047 A 
ATOM      5  C3  UNL d   1      -1.699   1.360   0.479  0.00  0.00    -0.047 A 
ATOM      6  C4  UNL d   1      -1.036   0.673  -0.516  0.00  0.00    -0.004 A 
ENDROOT
TORSDOF 0
ENDMDL
