MODEL 1
REMARK minimizedAffinity -3.59462667
REMARK minimizedRMSD -1
REMARK  0 active torsions:
REMARK  status: ('A' for Active; 'I' for Inactive)
ROOT
ATOM      1  C   UNL d   1      -0.030  -0.641  -0.091  0.00  0.00     0.172 C 
ATOM      2  N   UNL d   1      -0.573   0.395   0.755  0.00  0.00    -0.070 N 
ATOM      3  C1  UNL d   1      -1.608   1.231   0.429  0.00  0.00    -0.004 A 
ATOM      4  C2  UNL d   1      -1.823   2.073   1.499  0.00  0.00    -0.047 A 
ATOM      5  C3  UNL d   1      -0.885   1.732   2.502  0.00  0.00    -0.047 A 
ATOM      6  C4  UNL d   1      -0.124   0.690   2.015  0.00  0.00    -0.004 A 
ENDROOT
TORSDOF 0
ENDMDL
