MODEL 1
REMARK minimizedAffinity -3.91998672
REMARK minimizedRMSD -1
REMARK  0 active torsions:
REMARK  status: ('A' for Active; 'I' for Inactive)
ROOT
ATOM      1  C   UNL d   1       0.707  -0.067  -0.510  0.00  0.00     0.172 C 
ATOM      2  N   UNL d   1      -0.273   0.353   0.463  0.00  0.00    -0.070 N 
ATOM      3  C1  UNL d   1      -0.257   0.045   1.797  0.00  0.00    -0.004 A 
ATOM      4  C2  UNL d   1      -1.359   0.632   2.380  0.00  0.00    -0.047 A 
ATOM      5  C3  UNL d   1      -2.063   1.316   1.360  0.00  0.00    -0.047 A 
ATOM      6  C4  UNL d   1      -1.369   1.127   0.184  0.00  0.00    -0.004 A 
ENDROOT
TORSDOF 0
ENDMDL
