MODEL 1
REMARK minimizedAffinity -3.28185391
REMARK minimizedRMSD -1
REMARK  0 active torsions:
REMARK  status: ('A' for Active; 'I' for Inactive)
ROOT
ATOM      1  C   UNL d   1       0.607   0.048  -0.388  0.00  0.00     0.172 C 
ATOM      2  N   UNL d   1      -0.171   0.828   0.546  0.00  0.00    -0.070 N 
ATOM      3  C1  UNL d   1      -0.218   2.196   0.598  0.00  0.00    -0.004 A 
ATOM      4  C2  UNL d   1      -1.070   2.550   1.622  0.00  0.00    -0.047 A 
ATOM      5  C3  UNL d   1      -1.551   1.354   2.205  0.00  0.00    -0.047 A 
ATOM      6  C4  UNL d   1      -0.979   0.303   1.520  0.00  0.00    -0.004 A 
ENDROOT
TORSDOF 0
ENDMDL
