MODEL 1
REMARK minimizedAffinity -2.40256929
REMARK minimizedRMSD -1
REMARK  0 active torsions:
REMARK  status: ('A' for Active; 'I' for Inactive)
ROOT
ATOM      1  C   UNL d   1      -2.217   1.996   0.691  0.00  0.00     0.172 C 
ATOM      2  N   UNL d   1      -1.197   0.973   0.719  0.00  0.00    -0.070 N 
ATOM      3  C1  UNL d   1      -0.624   0.388  -0.378  0.00  0.00    -0.004 A 
ATOM      4  C2  UNL d   1       0.299  -0.533   0.069  0.00  0.00    -0.047 A 
ATOM      5  C3  UNL d   1       0.279  -0.500   1.483  0.00  0.00    -0.047 A 
ATOM      6  C4  UNL d   1      -0.656   0.441   1.859  0.00  0.00    -0.004 A 
ENDROOT
TORSDOF 0
ENDMDL
