MODEL 1
REMARK minimizedAffinity -3.81247354
REMARK minimizedRMSD -1
REMARK  0 active torsions:
REMARK  status: ('A' for Active; 'I' for Inactive)
ROOT
ATOM      1  C   UNL d   1       0.516  -0.394   0.272  0.00  0.00     0.172 C 
ATOM      2  N   UNL d   1      -0.639   0.376   0.673  0.00  0.00    -0.070 N 
ATOM      3  C1  UNL d   1      -1.772  -0.128   1.253  0.00  0.00    -0.004 A 
ATOM      4  C2  UNL d   1      -2.633   0.924   1.481  0.00  0.00    -0.047 A 
ATOM      5  C3  UNL d   1      -1.995   2.100   1.020  0.00  0.00    -0.047 A 
ATOM      6  C4  UNL d   1      -0.762   1.732   0.525  0.00  0.00    -0.004 A 
ENDROOT
TORSDOF 0
ENDMDL
