MODEL 1
REMARK minimizedAffinity -4.59326744
REMARK minimizedRMSD -1
REMARK  1 active torsions:
REMARK  status: ('A' for Active; 'I' for Inactive)
REMARK    1  A    between atoms: C1_2  and  C2_3 
ROOT
ATOM      1  C2  UNL d   1      -0.622   1.121  -1.056  0.00  0.00    -0.073 A 
ATOM      2  C3  UNL d   1      -2.017   1.053  -0.963  0.00  0.00    -0.002 A 
ATOM      3  C4  UNL d   1      -2.816   1.529  -2.003  0.00  0.00     0.004 A 
ATOM      4  C5  UNL d   1      -2.230   2.072  -3.147  0.00  0.00    -0.004 A 
ATOM      5  C6  UNL d   1      -0.838   2.138  -3.263  0.00  0.00    -0.075 A 
ATOM      6  C7  UNL d   1      -0.193   2.721  -4.485  0.00  0.00     0.076 C 
ATOM      7  C8  UNL d   1      -0.042   1.660  -2.213  0.00  0.00     0.001 A 
ENDROOT
BRANCH   1   8
ATOM      8  C1  UNL d   1       0.246   0.602   0.062  0.00  0.00     0.053 C 
ATOM      9  C   UNL d   1       0.092  -0.899   0.252  0.00  0.00     0.018 C 
ENDBRANCH   1   8
TORSDOF 1
ENDMDL
