MODEL 1
REMARK minimizedAffinity -4.89651728
REMARK minimizedRMSD -1
REMARK  1 active torsions:
REMARK  status: ('A' for Active; 'I' for Inactive)
REMARK    1  A    between atoms: C1_2  and  C2_3 
ROOT
ATOM      1  C2  UNL d   1      -0.079  -0.640  -0.363  0.00  0.00    -0.073 A 
ATOM      2  C3  UNL d   1       0.131   0.512   0.403  0.00  0.00    -0.002 A 
ATOM      3  C4  UNL d   1      -0.499   1.710   0.062  0.00  0.00     0.004 A 
ATOM      4  C5  UNL d   1      -1.350   1.766  -1.042  0.00  0.00    -0.004 A 
ATOM      5  C6  UNL d   1      -1.582   0.622  -1.812  0.00  0.00    -0.075 A 
ATOM      6  C7  UNL d   1      -2.493   0.667  -3.004  0.00  0.00     0.076 C 
ATOM      7  C8  UNL d   1      -0.943  -0.576  -1.465  0.00  0.00     0.001 A 
ENDROOT
BRANCH   1   8
ATOM      8  C1  UNL d   1       0.594  -1.937   0.005  0.00  0.00     0.053 C 
ATOM      9  C   UNL d   1       1.831  -1.715   0.861  0.00  0.00     0.018 C 
ENDBRANCH   1   8
TORSDOF 1
ENDMDL
