MODEL 1
REMARK minimizedAffinity -5.48683453
REMARK minimizedRMSD -1
REMARK  1 active torsions:
REMARK  status: ('A' for Active; 'I' for Inactive)
REMARK    1  A    between atoms: C1_2  and  C2_3 
ROOT
ATOM      1  C2  UNL d   1      -0.055   0.668   0.071  0.00  0.00    -0.073 A 
ATOM      2  C3  UNL d   1       0.962   1.119  -0.778  0.00  0.00    -0.002 A 
ATOM      3  C4  UNL d   1       2.097   0.337  -0.996  0.00  0.00     0.004 A 
ATOM      4  C5  UNL d   1       2.224  -0.905  -0.374  0.00  0.00    -0.004 A 
ATOM      5  C6  UNL d   1       1.213  -1.379   0.469  0.00  0.00    -0.075 A 
ATOM      6  C7  UNL d   1       1.336  -2.711   1.147  0.00  0.00     0.076 C 
ATOM      7  C8  UNL d   1       0.078  -0.586   0.685  0.00  0.00     0.001 A 
ENDROOT
BRANCH   1   8
ATOM      8  C1  UNL d   1      -1.285   1.506   0.305  0.00  0.00     0.053 C 
ATOM      9  C   UNL d   1      -1.729   2.230  -0.956  0.00  0.00     0.018 C 
ENDBRANCH   1   8
TORSDOF 1
ENDMDL
