MODEL 1
REMARK minimizedAffinity -5.18562269
REMARK minimizedRMSD -1
REMARK  1 active torsions:
REMARK  status: ('A' for Active; 'I' for Inactive)
REMARK    1  A    between atoms: C1_2  and  C2_3 
ROOT
ATOM      1  C2  UNL d   1       0.145   0.061  -0.299  0.00  0.00    -0.073 A 
ATOM      2  C3  UNL d   1      -0.745   0.599   0.637  0.00  0.00    -0.002 A 
ATOM      3  C4  UNL d   1      -1.730   1.501   0.234  0.00  0.00     0.004 A 
ATOM      4  C5  UNL d   1      -1.840   1.869  -1.107  0.00  0.00    -0.004 A 
ATOM      5  C6  UNL d   1      -0.967   1.333  -2.059  0.00  0.00    -0.075 A 
ATOM      6  C7  UNL d   1      -1.070   1.719  -3.505  0.00  0.00     0.076 C 
ATOM      7  C8  UNL d   1       0.022   0.429  -1.646  0.00  0.00     0.001 A 
ENDROOT
BRANCH   1   8
ATOM      8  C1  UNL d   1       1.207  -0.919   0.130  0.00  0.00     0.053 C 
ATOM      9  C   UNL d   1       0.670  -2.339   0.219  0.00  0.00     0.018 C 
ENDBRANCH   1   8
TORSDOF 1
ENDMDL
