MODEL 1
REMARK minimizedAffinity -3.4230125
REMARK minimizedRMSD -1
REMARK  1 active torsions:
REMARK  status: ('A' for Active; 'I' for Inactive)
REMARK    1  A    between atoms: C1_2  and  C2_3 
ROOT
ATOM      1  C2  UNL d   1      -1.368   1.457  -1.129  0.00  0.00    -0.073 A 
ATOM      2  C3  UNL d   1      -2.724   1.261  -1.413  0.00  0.00    -0.002 A 
ATOM      3  C4  UNL d   1      -3.262   1.700  -2.623  0.00  0.00     0.004 A 
ATOM      4  C5  UNL d   1      -2.449   2.332  -3.564  0.00  0.00    -0.004 A 
ATOM      5  C6  UNL d   1      -1.089   2.526  -3.304  0.00  0.00    -0.075 A 
ATOM      6  C7  UNL d   1      -0.202   3.206  -4.305  0.00  0.00     0.076 C 
ATOM      7  C8  UNL d   1      -0.557   2.085  -2.085  0.00  0.00     0.001 A 
ENDROOT
BRANCH   1   8
ATOM      8  C1  UNL d   1      -0.781   0.979   0.174  0.00  0.00     0.053 C 
ATOM      9  C   UNL d   1      -0.117  -0.382   0.035  0.00  0.00     0.018 C 
ENDBRANCH   1   8
TORSDOF 1
ENDMDL
