MODEL 1
REMARK minimizedAffinity -1.32845545
REMARK minimizedRMSD -1
REMARK  1 active torsions:
REMARK  status: ('A' for Active; 'I' for Inactive)
REMARK    1  A    between atoms: C1_2  and  C2_3 
ROOT
ATOM      1  C2  UNL d   1      -0.343   0.387   0.303  0.00  0.00    -0.073 A 
ATOM      2  C3  UNL d   1       0.831   1.108   0.053  0.00  0.00    -0.002 A 
ATOM      3  C4  UNL d   1       2.027   0.438  -0.206  0.00  0.00     0.004 A 
ATOM      4  C5  UNL d   1       2.061  -0.956  -0.226  0.00  0.00    -0.004 A 
ATOM      5  C6  UNL d   1       0.897  -1.694   0.009  0.00  0.00    -0.075 A 
ATOM      6  C7  UNL d   1       0.917  -3.194  -0.006  0.00  0.00     0.076 C 
ATOM      7  C8  UNL d   1      -0.300  -1.014   0.272  0.00  0.00     0.001 A 
ENDROOT
BRANCH   1   8
ATOM      8  C1  UNL d   1      -1.638   1.106   0.577  0.00  0.00     0.053 C 
ATOM      9  C   UNL d   1      -2.246   0.697   1.909  0.00  0.00     0.018 C 
ENDBRANCH   1   8
TORSDOF 1
ENDMDL
