MODEL 1
REMARK minimizedAffinity -3.54535055
REMARK minimizedRMSD -1
REMARK  1 active torsions:
REMARK  status: ('A' for Active; 'I' for Inactive)
REMARK    1  A    between atoms: C1_2  and  C2_3 
ROOT
ATOM      1  C2  UNL d   1       1.549  -1.406   0.444  0.00  0.00    -0.073 A 
ATOM      2  C3  UNL d   1       1.362  -2.695   0.955  0.00  0.00    -0.002 A 
ATOM      3  C4  UNL d   1       0.149  -3.049   1.548  0.00  0.00     0.004 A 
ATOM      4  C5  UNL d   1      -0.889  -2.122   1.630  0.00  0.00    -0.004 A 
ATOM      5  C6  UNL d   1      -0.726  -0.832   1.115  0.00  0.00    -0.075 A 
ATOM      6  C7  UNL d   1      -1.832   0.178   1.197  0.00  0.00     0.076 C 
ATOM      7  C8  UNL d   1       0.496  -0.483   0.523  0.00  0.00     0.001 A 
ENDROOT
BRANCH   1   8
ATOM      8  C1  UNL d   1       2.854  -1.021  -0.203  0.00  0.00     0.053 C 
ATOM      9  C   UNL d   1       2.741   0.277  -0.986  0.00  0.00     0.018 C 
ENDBRANCH   1   8
TORSDOF 1
ENDMDL
