MODEL 1
REMARK minimizedAffinity -2.64300418
REMARK minimizedRMSD -1
REMARK  1 active torsions:
REMARK  status: ('A' for Active; 'I' for Inactive)
REMARK    1  A    between atoms: C1_2  and  C2_3 
ROOT
ATOM      1  C2  UNL d   1      -0.311   0.010  -0.680  0.00  0.00    -0.073 A 
ATOM      2  C3  UNL d   1       0.784   0.874  -0.573  0.00  0.00    -0.002 A 
ATOM      3  C4  UNL d   1       2.012   0.402  -0.105  0.00  0.00     0.004 A 
ATOM      4  C5  UNL d   1       2.158  -0.938   0.253  0.00  0.00    -0.004 A 
ATOM      5  C6  UNL d   1       1.078  -1.820   0.142  0.00  0.00    -0.075 A 
ATOM      6  C7  UNL d   1       1.218  -3.263   0.526  0.00  0.00     0.076 C 
ATOM      7  C8  UNL d   1      -0.152  -1.337  -0.326  0.00  0.00     0.001 A 
ENDROOT
BRANCH   1   8
ATOM      8  C1  UNL d   1      -1.636   0.514  -1.190  0.00  0.00     0.053 C 
ATOM      9  C   UNL d   1      -1.467   1.599  -2.242  0.00  0.00     0.018 C 
ENDBRANCH   1   8
TORSDOF 1
ENDMDL
