MODEL 1
REMARK minimizedAffinity 19.4821281
REMARK minimizedRMSD -1
REMARK  2 active torsions:
REMARK  status: ('A' for Active; 'I' for Inactive)
REMARK    1  A    between atoms: C2'_3  and  C1'_4 
REMARK    2  A    between atoms: C1'_4  and  C1_5 
ROOT
ATOM      1  C1  I4B d   1      -3.713   2.191  -3.998  0.00  0.00    -0.075 A 
ATOM      2  C2  I4B d   1      -4.607   1.344  -4.603  0.00  0.00     0.003 A 
ATOM      3  C3  I4B d   1      -5.698   1.866  -5.339  0.00  0.00     0.002 A 
ATOM      4  C4  I4B d   1      -5.884   3.232  -5.402  0.00  0.00    -0.004 A 
ATOM      5  C5  I4B d   1      -4.963   4.090  -4.807  0.00  0.00     0.002 A 
ATOM      6  C6  I4B d   1      -3.864   3.567  -4.112  0.00  0.00     0.003 A 
ENDROOT
BRANCH   1   7
ATOM      7  C1' I4B d   1      -2.590   1.606  -3.201  0.00  0.00     0.060 C 
BRANCH   7   8
ATOM      8  C2' I4B d   1      -3.134   0.419  -2.432  0.00  0.00    -0.013 C 
ATOM      9  C4' I4B d   1      -2.171  -0.739  -2.464  0.00  0.00     0.013 C 
ATOM     10  C3' I4B d   1      -3.400   0.863  -1.024  0.00  0.00     0.013 C 
ENDBRANCH   7   8
ENDBRANCH   1   7
TORSDOF 2
ENDMDL
