MODEL 1
REMARK minimizedAffinity 12.9204311
REMARK minimizedRMSD -1
REMARK  2 active torsions:
REMARK  status: ('A' for Active; 'I' for Inactive)
REMARK    1  A    between atoms: C2'_3  and  C1'_4 
REMARK    2  A    between atoms: C1'_4  and  C1_5 
ROOT
ATOM      1  C1  I4B d   1       2.617  -2.204   2.617  0.00  0.00    -0.075 A 
ATOM      2  C2  I4B d   1       3.525  -2.731   1.733  0.00  0.00     0.003 A 
ATOM      3  C3  I4B d   1       3.135  -3.037   0.407  0.00  0.00     0.002 A 
ATOM      4  C4  I4B d   1       1.822  -2.849   0.025  0.00  0.00    -0.004 A 
ATOM      5  C5  I4B d   1       0.908  -2.293   0.915  0.00  0.00     0.002 A 
ATOM      6  C6  I4B d   1       1.310  -1.957   2.216  0.00  0.00     0.003 A 
ENDROOT
BRANCH   1   7
ATOM      7  C1' I4B d   1       3.055  -1.923   4.020  0.00  0.00     0.060 C 
BRANCH   7   8
ATOM      8  C2' I4B d   1       4.220  -2.839   4.337  0.00  0.00    -0.013 C 
ATOM      9  C4' I4B d   1       5.505  -2.063   4.459  0.00  0.00     0.013 C 
ATOM     10  C3' I4B d   1       3.904  -3.567   5.609  0.00  0.00     0.013 C 
ENDBRANCH   7   8
ENDBRANCH   1   7
TORSDOF 2
ENDMDL
