MODEL 1
REMARK minimizedAffinity 2.73755097
REMARK minimizedRMSD -1
REMARK  2 active torsions:
REMARK  status: ('A' for Active; 'I' for Inactive)
REMARK    1  A    between atoms: C2'_3  and  C1'_4 
REMARK    2  A    between atoms: C1'_4  and  C1_5 
ROOT
ATOM      1  C1  I4B d   1       1.515   5.959   5.122  0.00  0.00    -0.075 A 
ATOM      2  C2  I4B d   1       0.459   5.998   5.999  0.00  0.00     0.003 A 
ATOM      3  C3  I4B d   1      -0.871   5.992   5.513  0.00  0.00     0.002 A 
ATOM      4  C4  I4B d   1      -1.097   5.999   4.152  0.00  0.00    -0.004 A 
ATOM      5  C5  I4B d   1      -0.026   5.936   3.265  0.00  0.00     0.002 A 
ATOM      6  C6  I4B d   1       1.288   5.904   3.753  0.00  0.00     0.003 A 
ENDROOT
BRANCH   1   7
ATOM      7  C1' I4B d   1       2.907   6.000   5.669  0.00  0.00     0.060 C 
BRANCH   7   8
ATOM      8  C2' I4B d   1       3.830   5.376   4.642  0.00  0.00    -0.013 C 
ATOM      9  C4' I4B d   1       5.207   5.981   4.708  0.00  0.00     0.013 C 
ATOM     10  C3' I4B d   1       3.874   3.899   4.896  0.00  0.00     0.013 C 
ENDBRANCH   7   8
ENDBRANCH   1   7
TORSDOF 2
ENDMDL
