MODEL 1
REMARK minimizedAffinity 13.2288017
REMARK minimizedRMSD -1
REMARK  2 active torsions:
REMARK  status: ('A' for Active; 'I' for Inactive)
REMARK    1  A    between atoms: C2'_3  and  C1'_4 
REMARK    2  A    between atoms: C1'_4  and  C1_5 
ROOT
ATOM      1  C1  I4B d   1       2.458  -1.193   1.710  0.00  0.00    -0.075 A 
ATOM      2  C2  I4B d   1       3.279  -1.772   2.644  0.00  0.00     0.003 A 
ATOM      3  C3  I4B d   1       3.334  -1.258   3.962  0.00  0.00     0.002 A 
ATOM      4  C4  I4B d   1       2.594  -0.139   4.286  0.00  0.00    -0.004 A 
ATOM      5  C5  I4B d   1       1.744   0.433   3.344  0.00  0.00     0.002 A 
ATOM      6  C6  I4B d   1       1.666  -0.104   2.051  0.00  0.00     0.003 A 
ENDROOT
BRANCH   1   7
ATOM      7  C1' I4B d   1       2.449  -1.742   0.318  0.00  0.00     0.060 C 
BRANCH   7   8
ATOM      8  C2' I4B d   1       1.283  -2.702   0.202  0.00  0.00    -0.013 C 
ATOM      9  C4' I4B d   1       1.747  -4.133   0.257  0.00  0.00     0.013 C 
ATOM     10  C3' I4B d   1       0.323  -2.401   1.315  0.00  0.00     0.013 C 
ENDBRANCH   7   8
ENDBRANCH   1   7
TORSDOF 2
ENDMDL
