MODEL 1
REMARK minimizedAffinity 17.1737309
REMARK minimizedRMSD -1
REMARK  2 active torsions:
REMARK  status: ('A' for Active; 'I' for Inactive)
REMARK    1  A    between atoms: C2'_3  and  C1'_4 
REMARK    2  A    between atoms: C1'_4  and  C1_5 
ROOT
ATOM      1  C1  I4B d   1       1.473  -0.487   2.014  0.00  0.00    -0.075 A 
ATOM      2  C2  I4B d   1       2.728  -1.041   1.976  0.00  0.00     0.003 A 
ATOM      3  C3  I4B d   1       2.999  -2.135   1.118  0.00  0.00     0.002 A 
ATOM      4  C4  I4B d   1       1.979  -2.671   0.358  0.00  0.00    -0.004 A 
ATOM      5  C5  I4B d   1       0.713  -2.092   0.380  0.00  0.00     0.002 A 
ATOM      6  C6  I4B d   1       0.461  -0.986   1.204  0.00  0.00     0.003 A 
ENDROOT
BRANCH   1   7
ATOM      7  C1' I4B d   1       1.213   0.646   2.955  0.00  0.00     0.060 C 
BRANCH   7   8
ATOM      8  C2' I4B d   1       1.947   1.865   2.433  0.00  0.00    -0.013 C 
ATOM      9  C4' I4B d   1       1.540   2.181   1.018  0.00  0.00     0.013 C 
ATOM     10  C3' I4B d   1       1.650   3.013   3.351  0.00  0.00     0.013 C 
ENDBRANCH   7   8
ENDBRANCH   1   7
TORSDOF 2
ENDMDL
