MODEL 1
REMARK minimizedAffinity -4.05936146
REMARK minimizedRMSD -1
REMARK  1 active torsions:
REMARK  status: ('A' for Active; 'I' for Inactive)
REMARK    1  A    between atoms: C3_4  and  O_7 
ROOT
ATOM      1  C   UNL d   1       0.058  -0.021   0.100  0.00  0.00    -0.033 A 
ATOM      2  C1  UNL d   1       0.925   0.446   1.090  0.00  0.00     0.039 A 
ATOM      3  C2  UNL d   1       2.079  -0.272   1.406  0.00  0.00    -0.080 A 
ATOM      4  C3  UNL d   1       2.356  -1.454   0.725  0.00  0.00     0.150 A 
ATOM      5  C4  UNL d   1       1.499  -1.924  -0.265  0.00  0.00    -0.007 A 
ATOM      6  C5  UNL d   1       0.346  -1.206  -0.579  0.00  0.00     0.039 A 
ENDROOT
BRANCH   4   7
ATOM      7  O   UNL d   1       3.468  -2.192   1.002  0.00  0.00    -0.526 OA
ATOM      8  H5  UNL d   1       3.951  -1.761   1.726  0.00  0.00     0.418 HD
ENDBRANCH   4   7
TORSDOF 1
ENDMDL
