MODEL 1
REMARK minimizedAffinity -5.31126881
REMARK minimizedRMSD -1
REMARK  1 active torsions:
REMARK  status: ('A' for Active; 'I' for Inactive)
REMARK    1  A    between atoms: C3_4  and  O_7 
ROOT
ATOM      1  C   UNL d   1       3.253  -0.973   0.744  0.00  0.00    -0.033 A 
ATOM      2  C1  UNL d   1       2.245  -1.696   0.103  0.00  0.00     0.039 A 
ATOM      3  C2  UNL d   1       1.042  -1.073  -0.235  0.00  0.00    -0.080 A 
ATOM      4  C3  UNL d   1       0.860   0.273   0.073  0.00  0.00     0.150 A 
ATOM      5  C4  UNL d   1       1.862   1.000   0.708  0.00  0.00    -0.007 A 
ATOM      6  C5  UNL d   1       3.062   0.375   1.045  0.00  0.00     0.039 A 
ENDROOT
BRANCH   4   7
ATOM      7  O   UNL d   1      -0.298   0.923  -0.232  0.00  0.00    -0.526 OA
ATOM      8  H5  UNL d   1      -0.909   0.288  -0.641  0.00  0.00     0.418 HD
ENDBRANCH   4   7
TORSDOF 1
ENDMDL
