MODEL 1
REMARK minimizedAffinity -2.72493815
REMARK minimizedRMSD -1
REMARK  1 active torsions:
REMARK  status: ('A' for Active; 'I' for Inactive)
REMARK    1  A    between atoms: C3_4  and  O_7 
ROOT
ATOM      1  C   UNL d   1      -0.795  -0.299  -0.563  0.00  0.00    -0.033 A 
ATOM      2  C1  UNL d   1      -0.064   0.461   0.351  0.00  0.00     0.039 A 
ATOM      3  C2  UNL d   1      -0.723   1.320   1.233  0.00  0.00    -0.080 A 
ATOM      4  C3  UNL d   1      -2.112   1.409   1.190  0.00  0.00     0.150 A 
ATOM      5  C4  UNL d   1      -2.847   0.651   0.285  0.00  0.00    -0.007 A 
ATOM      6  C5  UNL d   1      -2.187  -0.205  -0.596  0.00  0.00     0.039 A 
ENDROOT
BRANCH   4   7
ATOM      7  O   UNL d   1      -2.799   2.237   2.028  0.00  0.00    -0.526 OA
ATOM      8  H5  UNL d   1      -2.159   2.718   2.578  0.00  0.00     0.418 HD
ENDBRANCH   4   7
TORSDOF 1
ENDMDL
