MODEL 1
REMARK minimizedAffinity -2.95327783
REMARK minimizedRMSD -1
REMARK  1 active torsions:
REMARK  status: ('A' for Active; 'I' for Inactive)
REMARK    1  A    between atoms: C3_4  and  O_7 
ROOT
ATOM      1  C   UNL d   1       0.086  -0.635   0.934  0.00  0.00    -0.033 A 
ATOM      2  C1  UNL d   1       1.289  -0.272   1.541  0.00  0.00     0.039 A 
ATOM      3  C2  UNL d   1       1.824   1.000   1.330  0.00  0.00    -0.080 A 
ATOM      4  C3  UNL d   1       1.146   1.899   0.511  0.00  0.00     0.150 A 
ATOM      5  C4  UNL d   1      -0.055   1.545  -0.095  0.00  0.00    -0.007 A 
ATOM      6  C5  UNL d   1      -0.587   0.274   0.117  0.00  0.00     0.039 A 
ENDROOT
BRANCH   4   7
ATOM      7  O   UNL d   1       1.631   3.150   0.271  0.00  0.00    -0.526 OA
ATOM      8  H5  UNL d   1       2.482   3.244   0.732  0.00  0.00     0.418 HD
ENDBRANCH   4   7
TORSDOF 1
ENDMDL
