MODEL 1
REMARK minimizedAffinity -5.45348215
REMARK minimizedRMSD -1
REMARK  1 active torsions:
REMARK  status: ('A' for Active; 'I' for Inactive)
REMARK    1  A    between atoms: C3_4  and  O_7 
ROOT
ATOM      1  C   UNL d   1      -0.418   0.057  -0.571  0.00  0.00    -0.033 A 
ATOM      2  C1  UNL d   1       0.458   0.866   0.156  0.00  0.00     0.039 A 
ATOM      3  C2  UNL d   1       1.599   0.313   0.741  0.00  0.00    -0.080 A 
ATOM      4  C3  UNL d   1       1.852  -1.048   0.592  0.00  0.00     0.150 A 
ATOM      5  C4  UNL d   1       0.985  -1.859  -0.134  0.00  0.00    -0.007 A 
ATOM      6  C5  UNL d   1      -0.154  -1.305  -0.717  0.00  0.00     0.039 A 
ENDROOT
BRANCH   4   7
ATOM      7  O   UNL d   1       2.949  -1.634   1.149  0.00  0.00    -0.526 OA
ATOM      8  H5  UNL d   1       3.441  -0.958   1.644  0.00  0.00     0.418 HD
ENDBRANCH   4   7
TORSDOF 1
ENDMDL
