MODEL 1
REMARK minimizedAffinity -5.51079655
REMARK minimizedRMSD -1
REMARK  1 active torsions:
REMARK  status: ('A' for Active; 'I' for Inactive)
REMARK    1  A    between atoms: C3_4  and  O_7 
ROOT
ATOM      1  C   UNL d   1       2.891  -1.030   0.591  0.00  0.00    -0.033 A 
ATOM      2  C1  UNL d   1       3.842  -0.025   0.400  0.00  0.00     0.039 A 
ATOM      3  C2  UNL d   1       3.434   1.279   0.114  0.00  0.00    -0.080 A 
ATOM      4  C3  UNL d   1       2.074   1.565   0.023  0.00  0.00     0.150 A 
ATOM      5  C4  UNL d   1       1.122   0.570   0.216  0.00  0.00    -0.007 A 
ATOM      6  C5  UNL d   1       1.531  -0.732   0.500  0.00  0.00     0.039 A 
ENDROOT
BRANCH   4   7
ATOM      7  O   UNL d   1       1.628   2.822  -0.259  0.00  0.00    -0.526 OA
ATOM      8  H5  UNL d   1       2.398   3.399  -0.395  0.00  0.00     0.418 HD
ENDBRANCH   4   7
TORSDOF 1
ENDMDL
