MODEL 1
REMARK minimizedAffinity -4.36334944
REMARK minimizedRMSD -1
REMARK  1 active torsions:
REMARK  status: ('A' for Active; 'I' for Inactive)
REMARK    1  A    between atoms: C3_4  and  O_7 
ROOT
ATOM      1  C   UNL d   1       1.572   1.804   0.288  0.00  0.00    -0.033 A 
ATOM      2  C1  UNL d   1       2.963   1.826   0.407  0.00  0.00     0.039 A 
ATOM      3  C2  UNL d   1       3.669   0.635   0.588  0.00  0.00    -0.080 A 
ATOM      4  C3  UNL d   1       2.973  -0.570   0.645  0.00  0.00     0.150 A 
ATOM      5  C4  UNL d   1       1.588  -0.599   0.523  0.00  0.00    -0.007 A 
ATOM      6  C5  UNL d   1       0.885   0.592   0.345  0.00  0.00     0.039 A 
ENDROOT
BRANCH   4   7
ATOM      7  O   UNL d   1       3.618  -1.757   0.825  0.00  0.00    -0.526 OA
ATOM      8  H5  UNL d   1       4.568  -1.580   0.922  0.00  0.00     0.418 HD
ENDBRANCH   4   7
TORSDOF 1
ENDMDL
