MODEL 1
REMARK minimizedAffinity -5.09714031
REMARK minimizedRMSD -1
REMARK  1 active torsions:
REMARK  status: ('A' for Active; 'I' for Inactive)
REMARK    1  A    between atoms: C3_4  and  O_7 
ROOT
ATOM      1  C   UNL d   1       2.104  -1.219  -0.705  0.00  0.00    -0.033 A 
ATOM      2  C1  UNL d   1       3.063  -0.205  -0.741  0.00  0.00     0.039 A 
ATOM      3  C2  UNL d   1       2.666   1.134  -0.744  0.00  0.00    -0.080 A 
ATOM      4  C3  UNL d   1       1.309   1.444  -0.711  0.00  0.00     0.150 A 
ATOM      5  C4  UNL d   1       0.349   0.439  -0.671  0.00  0.00    -0.007 A 
ATOM      6  C5  UNL d   1       0.747  -0.897  -0.669  0.00  0.00     0.039 A 
ENDROOT
BRANCH   4   7
ATOM      7  O   UNL d   1       0.873   2.736  -0.717  0.00  0.00    -0.526 OA
ATOM      8  H5  UNL d   1       1.647   3.321  -0.775  0.00  0.00     0.418 HD
ENDBRANCH   4   7
TORSDOF 1
ENDMDL
