MODEL 1
REMARK minimizedAffinity -5.24202013
REMARK minimizedRMSD -1
REMARK  0 active torsions:
REMARK  status: ('A' for Active; 'I' for Inactive)
ROOT
ATOM      1  C   UNL d   1       0.116  -1.538  -1.663  0.00  0.00     0.077 C 
ATOM      2  C1  UNL d   1      -0.202  -0.346  -0.810  0.00  0.00    -0.074 A 
ATOM      3  C2  UNL d   1      -0.865   0.764  -1.345  0.00  0.00    -0.005 A 
ATOM      4  C3  UNL d   1      -1.163   1.861  -0.538  0.00  0.00     0.006 A 
ATOM      5  C4  UNL d   1      -0.803   1.860   0.810  0.00  0.00    -0.005 A 
ATOM      6  C5  UNL d   1      -0.140   0.760   1.363  0.00  0.00    -0.074 A 
ATOM      7  C6  UNL d   1       0.246   0.738   2.812  0.00  0.00     0.077 C 
ATOM      8  C7  UNL d   1       0.150  -0.342   0.547  0.00  0.00    -0.001 A 
ENDROOT
TORSDOF 0
ENDMDL
