MODEL 1
REMARK minimizedAffinity -3.17096496
REMARK minimizedRMSD -1
REMARK  0 active torsions:
REMARK  status: ('A' for Active; 'I' for Inactive)
ROOT
ATOM      1  C   UNL d   1      -0.407   0.238   1.115  0.00  0.00     0.077 C 
ATOM      2  C1  UNL d   1      -0.135  -0.761   0.030  0.00  0.00    -0.074 A 
ATOM      3  C2  UNL d   1       0.932  -0.586  -0.857  0.00  0.00    -0.005 A 
ATOM      4  C3  UNL d   1       1.179  -1.528  -1.855  0.00  0.00     0.006 A 
ATOM      5  C4  UNL d   1       0.363  -2.653  -1.976  0.00  0.00    -0.005 A 
ATOM      6  C5  UNL d   1      -0.708  -2.846  -1.098  0.00  0.00    -0.074 A 
ATOM      7  C6  UNL d   1      -1.589  -4.055  -1.208  0.00  0.00     0.077 C 
ATOM      8  C7  UNL d   1      -0.945  -1.898  -0.093  0.00  0.00    -0.001 A 
ENDROOT
TORSDOF 0
ENDMDL
