MODEL 1
REMARK minimizedAffinity -2.15213847
REMARK minimizedRMSD -1
REMARK  0 active torsions:
REMARK  status: ('A' for Active; 'I' for Inactive)
ROOT
ATOM      1  C   UNL d   1       0.470  -1.003  -0.501  0.00  0.00     0.077 C 
ATOM      2  C1  UNL d   1       0.390  -0.054   0.658  0.00  0.00    -0.074 A 
ATOM      3  C2  UNL d   1       0.123   1.304   0.458  0.00  0.00    -0.005 A 
ATOM      4  C3  UNL d   1       0.042   2.173   1.546  0.00  0.00     0.006 A 
ATOM      5  C4  UNL d   1       0.225   1.693   2.844  0.00  0.00    -0.005 A 
ATOM      6  C5  UNL d   1       0.492   0.338   3.063  0.00  0.00    -0.074 A 
ATOM      7  C6  UNL d   1       0.682  -0.196   4.452  0.00  0.00     0.077 C 
ATOM      8  C7  UNL d   1       0.565  -0.530   1.965  0.00  0.00    -0.001 A 
ENDROOT
TORSDOF 0
ENDMDL
