MODEL 1
REMARK minimizedAffinity -4.24697971
REMARK minimizedRMSD -1
REMARK  0 active torsions:
REMARK  status: ('A' for Active; 'I' for Inactive)
ROOT
ATOM      1  C   UNL d   1       2.037  -0.793   2.647  0.00  0.00     0.077 C 
ATOM      2  C1  UNL d   1       1.075  -0.342   1.588  0.00  0.00    -0.074 A 
ATOM      3  C2  UNL d   1       1.161  -0.834   0.282  0.00  0.00    -0.005 A 
ATOM      4  C3  UNL d   1       0.253  -0.412  -0.689  0.00  0.00     0.006 A 
ATOM      5  C4  UNL d   1      -0.747   0.505  -0.365  0.00  0.00    -0.005 A 
ATOM      6  C5  UNL d   1      -0.849   1.008   0.936  0.00  0.00    -0.074 A 
ATOM      7  C6  UNL d   1      -1.924   1.986   1.304  0.00  0.00     0.077 C 
ATOM      8  C7  UNL d   1       0.062   0.573   1.908  0.00  0.00    -0.001 A 
ENDROOT
TORSDOF 0
ENDMDL
