MODEL 1
REMARK minimizedAffinity -4.8784771
REMARK minimizedRMSD -1
REMARK  0 active torsions:
REMARK  status: ('A' for Active; 'I' for Inactive)
ROOT
ATOM      1  C   UNL d   1       1.934  -0.500   2.305  0.00  0.00     0.077 C 
ATOM      2  C1  UNL d   1       0.878   0.148   1.459  0.00  0.00    -0.074 A 
ATOM      3  C2  UNL d   1       0.376  -0.492   0.321  0.00  0.00    -0.005 A 
ATOM      4  C3  UNL d   1      -0.613   0.118  -0.450  0.00  0.00     0.006 A 
ATOM      5  C4  UNL d   1      -1.108   1.373  -0.093  0.00  0.00    -0.005 A 
ATOM      6  C5  UNL d   1      -0.618   2.028   1.041  0.00  0.00    -0.074 A 
ATOM      7  C6  UNL d   1      -1.147   3.372   1.444  0.00  0.00     0.077 C 
ATOM      8  C7  UNL d   1       0.370   1.405   1.815  0.00  0.00    -0.001 A 
ENDROOT
TORSDOF 0
ENDMDL
