MODEL 1
REMARK minimizedAffinity -4.50644159
REMARK minimizedRMSD -1
REMARK  0 active torsions:
REMARK  status: ('A' for Active; 'I' for Inactive)
ROOT
ATOM      1  C   UNL d   1      -1.922   2.542   1.524  0.00  0.00     0.077 C 
ATOM      2  C1  UNL d   1      -0.857   1.494   1.394  0.00  0.00    -0.074 A 
ATOM      3  C2  UNL d   1       0.176   1.398   2.332  0.00  0.00    -0.005 A 
ATOM      4  C3  UNL d   1       1.154   0.412   2.204  0.00  0.00     0.006 A 
ATOM      5  C4  UNL d   1       1.109  -0.488   1.138  0.00  0.00    -0.005 A 
ATOM      6  C5  UNL d   1       0.083  -0.408   0.191  0.00  0.00    -0.074 A 
ATOM      7  C6  UNL d   1       0.014  -1.373  -0.956  0.00  0.00     0.077 C 
ATOM      8  C7  UNL d   1      -0.900   0.581   0.330  0.00  0.00    -0.001 A 
ENDROOT
TORSDOF 0
ENDMDL
