MODEL 1
REMARK minimizedAffinity -6.08209944
REMARK minimizedRMSD -1
REMARK  0 active torsions:
REMARK  status: ('A' for Active; 'I' for Inactive)
ROOT
ATOM      1  C   UNL d   1      -0.404   1.782   2.954  0.00  0.00     0.077 C 
ATOM      2  C1  UNL d   1      -0.362   1.779   1.455  0.00  0.00    -0.074 A 
ATOM      3  C2  UNL d   1      -0.727   2.913   0.723  0.00  0.00    -0.005 A 
ATOM      4  C3  UNL d   1      -0.674   2.898  -0.671  0.00  0.00     0.006 A 
ATOM      5  C4  UNL d   1      -0.256   1.750  -1.346  0.00  0.00    -0.005 A 
ATOM      6  C5  UNL d   1       0.113   0.607  -0.631  0.00  0.00    -0.074 A 
ATOM      7  C6  UNL d   1       0.574  -0.632  -1.340  0.00  0.00     0.077 C 
ATOM      8  C7  UNL d   1       0.064   0.632   0.770  0.00  0.00    -0.001 A 
ENDROOT
TORSDOF 0
ENDMDL
