MODEL 1
REMARK minimizedAffinity -4.58429384
REMARK minimizedRMSD -1
REMARK  0 active torsions:
REMARK  status: ('A' for Active; 'I' for Inactive)
ROOT
ATOM      1  C   UNL d   1      -1.558   2.477   1.733  0.00  0.00     0.077 C 
ATOM      2  C1  UNL d   1      -0.575   1.355   1.571  0.00  0.00    -0.074 A 
ATOM      3  C2  UNL d   1       0.447   1.155   2.505  0.00  0.00    -0.005 A 
ATOM      4  C3  UNL d   1       1.347   0.101   2.346  0.00  0.00     0.006 A 
ATOM      5  C4  UNL d   1       1.235  -0.761   1.255  0.00  0.00    -0.005 A 
ATOM      6  C5  UNL d   1       0.219  -0.577   0.312  0.00  0.00    -0.074 A 
ATOM      7  C6  UNL d   1       0.078  -1.500  -0.862  0.00  0.00     0.077 C 
ATOM      8  C7  UNL d   1      -0.686   0.480   0.482  0.00  0.00    -0.001 A 
ENDROOT
TORSDOF 0
ENDMDL
