MODEL 1
REMARK minimizedAffinity 5.24588919
REMARK minimizedRMSD -1
REMARK  0 active torsions:
REMARK  status: ('A' for Active; 'I' for Inactive)
ROOT
ATOM      1  C   UNL d   1       1.715  -0.043  -0.155  0.00  0.00     0.077 C 
ATOM      2  C1  UNL d   1       2.496  -1.226  -0.646  0.00  0.00    -0.074 A 
ATOM      3  C2  UNL d   1       1.914  -2.497  -0.704  0.00  0.00    -0.005 A 
ATOM      4  C3  UNL d   1       2.650  -3.586  -1.172  0.00  0.00     0.006 A 
ATOM      5  C4  UNL d   1       3.971  -3.415  -1.587  0.00  0.00    -0.005 A 
ATOM      6  C5  UNL d   1       4.569  -2.152  -1.537  0.00  0.00    -0.074 A 
ATOM      7  C6  UNL d   1       5.985  -1.950  -1.987  0.00  0.00     0.077 C 
ATOM      8  C7  UNL d   1       3.821  -1.062  -1.071  0.00  0.00    -0.001 A 
ENDROOT
TORSDOF 0
ENDMDL
