MODEL 1
REMARK minimizedAffinity -4.08120298
REMARK minimizedRMSD -1
REMARK  0 active torsions:
REMARK  status: ('A' for Active; 'I' for Inactive)
ROOT
ATOM      1  N1  IND d   1      -1.638  -0.592  -0.191  0.00  0.00    -0.196 N 
ATOM      2  C2  IND d   1      -1.516   0.653  -0.741  0.00  0.00     0.054 A 
ATOM      3  C3  IND d   1      -0.230   1.066  -0.691  0.00  0.00    -0.031 A 
ATOM      4  C4  IND d   1       1.856  -0.181   0.159  0.00  0.00     0.051 A 
ATOM      5  C5  IND d   1       2.242  -1.333   0.786  0.00  0.00    -0.031 A 
ATOM      6  C6  IND d   1       1.336  -2.317   1.123  0.00  0.00     0.015 A 
ATOM      7  C7  IND d   1       0.006  -2.192   0.835  0.00  0.00    -0.016 A 
ATOM      8  C8  IND d   1      -0.390  -1.020   0.205  0.00  0.00    -0.047 A 
ATOM      9  C9  IND d   1       0.518   0.001  -0.102  0.00  0.00    -0.096 A 
ATOM     10  HN1 IND d   1      -2.371  -1.034  -0.106  0.00  0.00     0.298 HD
ENDROOT
TORSDOF 0
ENDMDL
