MODEL 1
REMARK minimizedAffinity -4.7098031
REMARK minimizedRMSD -1
REMARK  0 active torsions:
REMARK  status: ('A' for Active; 'I' for Inactive)
ROOT
ATOM      1  N1  IND d   1      -1.049  -0.270  -1.123  0.00  0.00    -0.196 N 
ATOM      2  C2  IND d   1      -0.816   1.064  -0.932  0.00  0.00     0.054 A 
ATOM      3  C3  IND d   1       0.257   1.243  -0.129  0.00  0.00    -0.031 A 
ATOM      4  C4  IND d   1       1.840  -0.506   0.902  0.00  0.00     0.051 A 
ATOM      5  C5  IND d   1       2.011  -1.855   1.040  0.00  0.00    -0.031 A 
ATOM      6  C6  IND d   1       1.155  -2.763   0.450  0.00  0.00     0.015 A 
ATOM      7  C7  IND d   1       0.098  -2.354  -0.313  0.00  0.00    -0.016 A 
ATOM      8  C8  IND d   1      -0.083  -0.985  -0.450  0.00  0.00    -0.047 A 
ATOM      9  C9  IND d   1       0.757  -0.058   0.182  0.00  0.00    -0.096 A 
ATOM     10  HN1 IND d   1      -1.691  -0.606  -1.586  0.00  0.00     0.298 HD
ENDROOT
TORSDOF 0
ENDMDL
