MODEL 1
REMARK minimizedAffinity -1.55698502
REMARK minimizedRMSD -1
REMARK  0 active torsions:
REMARK  status: ('A' for Active; 'I' for Inactive)
ROOT
ATOM      1  N1  IND d   1      -0.801   0.249  -0.919  0.00  0.00    -0.196 N 
ATOM      2  C2  IND d   1       0.107   1.088  -1.502  0.00  0.00     0.054 A 
ATOM      3  C3  IND d   1       1.363   0.749  -1.135  0.00  0.00    -0.031 A 
ATOM      4  C4  IND d   1       2.167  -1.208   0.332  0.00  0.00     0.051 A 
ATOM      5  C5  IND d   1       1.704  -2.225   1.119  0.00  0.00    -0.031 A 
ATOM      6  C6  IND d   1       0.355  -2.476   1.268  0.00  0.00     0.015 A 
ATOM      7  C7  IND d   1      -0.585  -1.723   0.623  0.00  0.00    -0.016 A 
ATOM      8  C8  IND d   1      -0.119  -0.685  -0.171  0.00  0.00    -0.047 A 
ATOM      9  C9  IND d   1       1.247  -0.399  -0.292  0.00  0.00    -0.096 A 
ATOM     10  HN1 IND d   1      -1.656   0.298  -1.005  0.00  0.00     0.298 HD
ENDROOT
TORSDOF 0
ENDMDL
