MODEL 1
REMARK minimizedAffinity -6.64424133
REMARK minimizedRMSD -1
REMARK  0 active torsions:
REMARK  status: ('A' for Active; 'I' for Inactive)
ROOT
ATOM      1  N1  IND d   1      -0.741   0.489   0.948  0.00  0.00    -0.196 N 
ATOM      2  C2  IND d   1      -0.079   1.032  -0.118  0.00  0.00     0.054 A 
ATOM      3  C3  IND d   1       0.953   0.238  -0.484  0.00  0.00    -0.031 A 
ATOM      4  C4  IND d   1       1.675  -2.045   0.461  0.00  0.00     0.051 A 
ATOM      5  C5  IND d   1       1.399  -2.932   1.463  0.00  0.00    -0.031 A 
ATOM      6  C6  IND d   1       0.373  -2.722   2.361  0.00  0.00     0.015 A 
ATOM      7  C7  IND d   1      -0.426  -1.616   2.283  0.00  0.00    -0.016 A 
ATOM      8  C8  IND d   1      -0.144  -0.709   1.271  0.00  0.00    -0.047 A 
ATOM      9  C9  IND d   1       0.923  -0.897   0.383  0.00  0.00    -0.096 A 
ATOM     10  HN1 IND d   1      -1.417   0.838   1.349  0.00  0.00     0.298 HD
ENDROOT
TORSDOF 0
ENDMDL
