MODEL 1
REMARK minimizedAffinity -5.14263391
REMARK minimizedRMSD -1
REMARK  0 active torsions:
REMARK  status: ('A' for Active; 'I' for Inactive)
ROOT
ATOM      1  N1  IND d   1       0.312  -2.226   1.360  0.00  0.00    -0.196 N 
ATOM      2  C2  IND d   1       1.553  -2.790   1.256  0.00  0.00     0.054 A 
ATOM      3  C3  IND d   1       2.364  -2.007   0.509  0.00  0.00    -0.031 A 
ATOM      4  C4  IND d   1       1.895   0.289  -0.555  0.00  0.00     0.051 A 
ATOM      5  C5  IND d   1       0.893   1.196  -0.764  0.00  0.00    -0.031 A 
ATOM      6  C6  IND d   1      -0.378   1.005  -0.262  0.00  0.00     0.015 A 
ATOM      7  C7  IND d   1      -0.694  -0.098   0.479  0.00  0.00    -0.016 A 
ATOM      8  C8  IND d   1       0.319  -1.024   0.687  0.00  0.00    -0.047 A 
ATOM      9  C9  IND d   1       1.600  -0.857   0.144  0.00  0.00    -0.096 A 
ATOM     10  HN1 IND d   1      -0.360  -2.565   1.776  0.00  0.00     0.298 HD
ENDROOT
TORSDOF 0
ENDMDL
