MODEL 1
REMARK minimizedAffinity -4.22202396
REMARK minimizedRMSD -1
REMARK  0 active torsions:
REMARK  status: ('A' for Active; 'I' for Inactive)
ROOT
ATOM      1  N1  IND d   1      -0.992   0.260   0.320  0.00  0.00    -0.196 N 
ATOM      2  C2  IND d   1      -1.072   1.408  -0.418  0.00  0.00     0.054 A 
ATOM      3  C3  IND d   1       0.086   1.623  -1.081  0.00  0.00    -0.031 A 
ATOM      4  C4  IND d   1       2.207   0.167  -1.182  0.00  0.00     0.051 A 
ATOM      5  C5  IND d   1       2.767  -0.958  -0.646  0.00  0.00    -0.031 A 
ATOM      6  C6  IND d   1       2.089  -1.753   0.256  0.00  0.00     0.015 A 
ATOM      7  C7  IND d   1       0.814  -1.456   0.648  0.00  0.00    -0.016 A 
ATOM      8  C8  IND d   1       0.244  -0.310   0.111  0.00  0.00    -0.047 A 
ATOM      9  C9  IND d   1       0.944   0.523  -0.771  0.00  0.00    -0.096 A 
ATOM     10  HN1 IND d   1      -1.610  -0.053   0.830  0.00  0.00     0.298 HD
ENDROOT
TORSDOF 0
ENDMDL
