MODEL 1
REMARK minimizedAffinity -4.69776344
REMARK minimizedRMSD -1
REMARK  0 active torsions:
REMARK  status: ('A' for Active; 'I' for Inactive)
ROOT
ATOM      1  N1  IND d   1      -1.549   0.210   0.568  0.00  0.00    -0.196 N 
ATOM      2  C2  IND d   1      -1.183   1.449   0.122  0.00  0.00     0.054 A 
ATOM      3  C3  IND d   1       0.089   1.428  -0.336  0.00  0.00    -0.031 A 
ATOM      4  C4  IND d   1       1.719  -0.554  -0.544  0.00  0.00     0.051 A 
ATOM      5  C5  IND d   1       1.849  -1.879  -0.234  0.00  0.00    -0.031 A 
ATOM      6  C6  IND d   1       0.832  -2.590   0.369  0.00  0.00     0.015 A 
ATOM      7  C7  IND d   1      -0.364  -2.003   0.675  0.00  0.00    -0.016 A 
ATOM      8  C8  IND d   1      -0.497  -0.656   0.368  0.00  0.00    -0.047 A 
ATOM      9  C9  IND d   1       0.547   0.081  -0.205  0.00  0.00    -0.096 A 
ATOM     10  HN1 IND d   1      -2.309   0.005   0.914  0.00  0.00     0.298 HD
ENDROOT
TORSDOF 0
ENDMDL
