MODEL 1
REMARK minimizedAffinity -3.29361606
REMARK minimizedRMSD -1
REMARK  0 active torsions:
REMARK  status: ('A' for Active; 'I' for Inactive)
ROOT
ATOM      1  N1  IND d   1      -1.072   0.314  -1.236  0.00  0.00    -0.196 N 
ATOM      2  C2  IND d   1      -1.032   1.566  -0.688  0.00  0.00     0.054 A 
ATOM      3  C3  IND d   1      -0.167   1.598   0.351  0.00  0.00    -0.031 A 
ATOM      4  C4  IND d   1       1.364  -0.261   1.261  0.00  0.00     0.051 A 
ATOM      5  C5  IND d   1       1.653  -1.588   1.110  0.00  0.00    -0.031 A 
ATOM      6  C6  IND d   1       1.039  -2.364   0.148  0.00  0.00     0.015 A 
ATOM      7  C7  IND d   1       0.116  -1.836  -0.710  0.00  0.00    -0.016 A 
ATOM      8  C8  IND d   1      -0.186  -0.491  -0.555  0.00  0.00    -0.047 A 
ATOM      9  C9  IND d   1       0.403   0.291   0.447  0.00  0.00    -0.096 A 
ATOM     10  HN1 IND d   1      -1.568   0.071  -1.895  0.00  0.00     0.298 HD
ENDROOT
TORSDOF 0
ENDMDL
