MODEL 1
REMARK minimizedAffinity -2.24559093
REMARK minimizedRMSD -1
REMARK  0 active torsions:
REMARK  status: ('A' for Active; 'I' for Inactive)
ROOT
ATOM      1  N1  IND d   1      -0.802   0.537   0.724  0.00  0.00    -0.196 N 
ATOM      2  C2  IND d   1      -0.372   1.344  -0.292  0.00  0.00     0.054 A 
ATOM      3  C3  IND d   1       0.804   0.893  -0.785  0.00  0.00    -0.031 A 
ATOM      4  C4  IND d   1       2.148  -1.207  -0.145  0.00  0.00     0.051 A 
ATOM      5  C5  IND d   1       2.174  -2.237   0.753  0.00  0.00    -0.031 A 
ATOM      6  C6  IND d   1       1.188  -2.400   1.704  0.00  0.00     0.015 A 
ATOM      7  C7  IND d   1       0.129  -1.542   1.787  0.00  0.00    -0.016 A 
ATOM      8  C8  IND d   1       0.102  -0.490   0.881  0.00  0.00    -0.047 A 
ATOM      9  C9  IND d   1       1.122  -0.296  -0.059  0.00  0.00    -0.096 A 
ATOM     10  HN1 IND d   1      -1.518   0.651   1.187  0.00  0.00     0.298 HD
ENDROOT
TORSDOF 0
ENDMDL
