MODEL 1
REMARK minimizedAffinity -2.1738925
REMARK minimizedRMSD -1
REMARK  0 active torsions:
REMARK  status: ('A' for Active; 'I' for Inactive)
ROOT
ATOM      1  N1  IND d   1      -1.081   0.157   0.753  0.00  0.00    -0.196 N 
ATOM      2  C2  IND d   1      -1.176   1.220  -0.102  0.00  0.00     0.054 A 
ATOM      3  C3  IND d   1      -0.076   1.293  -0.885  0.00  0.00    -0.031 A 
ATOM      4  C4  IND d   1       1.955  -0.284  -1.004  0.00  0.00     0.051 A 
ATOM      5  C5  IND d   1       2.510  -1.374  -0.395  0.00  0.00    -0.031 A 
ATOM      6  C6  IND d   1       1.882  -2.024   0.648  0.00  0.00     0.015 A 
ATOM      7  C7  IND d   1       0.666  -1.614   1.114  0.00  0.00    -0.016 A 
ATOM      8  C8  IND d   1       0.103  -0.503   0.502  0.00  0.00    -0.047 A 
ATOM      9  C9  IND d   1       0.754   0.187  -0.528  0.00  0.00    -0.096 A 
ATOM     10  HN1 IND d   1      -1.662  -0.063   1.347  0.00  0.00     0.298 HD
ENDROOT
TORSDOF 0
ENDMDL
