MODEL 1
REMARK minimizedAffinity -4.15300894
REMARK minimizedRMSD -1
REMARK  0 active torsions:
REMARK  status: ('A' for Active; 'I' for Inactive)
ROOT
ATOM      1  N1  IND d   1       1.652  -2.995   1.067  0.00  0.00    -0.196 N 
ATOM      2  C2  IND d   1       0.376  -3.487   1.090  0.00  0.00     0.054 A 
ATOM      3  C3  IND d   1      -0.493  -2.560   0.630  0.00  0.00    -0.031 A 
ATOM      4  C4  IND d   1      -0.032  -0.207  -0.307  0.00  0.00     0.051 A 
ATOM      5  C5  IND d   1       0.974   0.700  -0.496  0.00  0.00    -0.031 A 
ATOM      6  C6  IND d   1       2.283   0.414  -0.169  0.00  0.00     0.015 A 
ATOM      7  C7  IND d   1       2.640  -0.798   0.350  0.00  0.00    -0.016 A 
ATOM      8  C8  IND d   1       1.620  -1.718   0.550  0.00  0.00    -0.047 A 
ATOM      9  C9  IND d   1       0.283  -1.419   0.260  0.00  0.00    -0.096 A 
ATOM     10  HN1 IND d   1       2.355  -3.412   1.332  0.00  0.00     0.298 HD
ENDROOT
TORSDOF 0
ENDMDL
