MODEL 1
REMARK minimizedAffinity -0.953053117
REMARK minimizedRMSD -1
REMARK  0 active torsions:
REMARK  status: ('A' for Active; 'I' for Inactive)
ROOT
ATOM      1  N1  IND d   1       1.143   0.748   0.115  0.00  0.00    -0.196 N 
ATOM      2  C2  IND d   1       2.414   0.507  -0.325  0.00  0.00     0.054 A 
ATOM      3  C3  IND d   1       2.628  -0.823  -0.441  0.00  0.00    -0.031 A 
ATOM      4  C4  IND d   1       1.001  -2.780  -0.058  0.00  0.00     0.051 A 
ATOM      5  C5  IND d   1      -0.261  -3.061   0.386  0.00  0.00    -0.031 A 
ATOM      6  C6  IND d   1      -1.138  -2.066   0.767  0.00  0.00     0.015 A 
ATOM      7  C7  IND d   1      -0.788  -0.747   0.708  0.00  0.00    -0.016 A 
ATOM      8  C8  IND d   1       0.495  -0.459   0.265  0.00  0.00    -0.047 A 
ATOM      9  C9  IND d   1       1.404  -1.466  -0.083  0.00  0.00    -0.096 A 
ATOM     10  HN1 IND d   1       0.805   1.523   0.273  0.00  0.00     0.298 HD
ENDROOT
TORSDOF 0
ENDMDL
