MODEL 1
REMARK minimizedAffinity -4.43525267
REMARK minimizedRMSD -1
REMARK  0 active torsions:
REMARK  status: ('A' for Active; 'I' for Inactive)
ROOT
ATOM      1  N1  IND d   1       1.831  -0.324  -0.310  0.00  0.00    -0.196 N 
ATOM      2  C2  IND d   1       2.513  -1.434   0.105  0.00  0.00     0.054 A 
ATOM      3  C3  IND d   1       1.750  -2.168   0.945  0.00  0.00    -0.031 A 
ATOM      4  C4  IND d   1      -0.683  -1.790   1.697  0.00  0.00     0.051 A 
ATOM      5  C5  IND d   1      -1.710  -0.892   1.611  0.00  0.00    -0.031 A 
ATOM      6  C6  IND d   1      -1.608   0.263   0.863  0.00  0.00     0.015 A 
ATOM      7  C7  IND d   1      -0.474   0.559   0.161  0.00  0.00    -0.016 A 
ATOM      8  C8  IND d   1       0.573  -0.347   0.251  0.00  0.00    -0.047 A 
ATOM      9  C9  IND d   1       0.491  -1.500   1.043  0.00  0.00    -0.096 A 
ATOM     10  HN1 IND d   1       2.137   0.286  -0.833  0.00  0.00     0.298 HD
ENDROOT
TORSDOF 0
ENDMDL
