MODEL 1
REMARK minimizedAffinity -3.69157004
REMARK minimizedRMSD -1
REMARK  0 active torsions:
REMARK  status: ('A' for Active; 'I' for Inactive)
ROOT
ATOM      1  N1  IND d   1       1.680  -0.638  -0.507  0.00  0.00    -0.196 N 
ATOM      2  C2  IND d   1       2.014  -1.893  -0.080  0.00  0.00     0.054 A 
ATOM      3  C3  IND d   1       1.080  -2.363   0.777  0.00  0.00    -0.031 A 
ATOM      4  C4  IND d   1      -1.128  -1.283   1.542  0.00  0.00     0.051 A 
ATOM      5  C5  IND d   1      -1.850  -0.127   1.451  0.00  0.00    -0.031 A 
ATOM      6  C6  IND d   1      -1.425   0.939   0.684  0.00  0.00     0.015 A 
ATOM      7  C7  IND d   1      -0.263   0.883  -0.032  0.00  0.00    -0.016 A 
ATOM      8  C8  IND d   1       0.477  -0.287   0.065  0.00  0.00    -0.047 A 
ATOM      9  C9  IND d   1       0.072  -1.356   0.875  0.00  0.00    -0.096 A 
ATOM     10  HN1 IND d   1       2.143  -0.150  -1.042  0.00  0.00     0.298 HD
ENDROOT
TORSDOF 0
ENDMDL
