MODEL 1
REMARK minimizedAffinity -4.86498213
REMARK minimizedRMSD -1
REMARK  0 active torsions:
REMARK  status: ('A' for Active; 'I' for Inactive)
ROOT
ATOM      1  N1  IND d   1      -0.043  -2.431   1.164  0.00  0.00    -0.196 N 
ATOM      2  C2  IND d   1       1.202  -2.820   0.755  0.00  0.00     0.054 A 
ATOM      3  C3  IND d   1       1.824  -1.806   0.113  0.00  0.00    -0.031 A 
ATOM      4  C4  IND d   1       1.026   0.608  -0.292  0.00  0.00     0.051 A 
ATOM      5  C5  IND d   1      -0.059   1.425  -0.134  0.00  0.00    -0.031 A 
ATOM      6  C6  IND d   1      -1.216   0.990   0.479  0.00  0.00     0.015 A 
ATOM      7  C7  IND d   1      -1.328  -0.280   0.970  0.00  0.00    -0.016 A 
ATOM      8  C8  IND d   1      -0.231  -1.114   0.806  0.00  0.00    -0.047 A 
ATOM      9  C9  IND d   1       0.930  -0.692   0.146  0.00  0.00    -0.096 A 
ATOM     10  HN1 IND d   1      -0.613  -2.926   1.577  0.00  0.00     0.298 HD
ENDROOT
TORSDOF 0
ENDMDL
