MODEL 1
REMARK minimizedAffinity -1.33739376
REMARK minimizedRMSD -1
REMARK  0 active torsions:
REMARK  status: ('A' for Active; 'I' for Inactive)
ROOT
ATOM      1  N1  IND d   1      -1.475  -0.450  -0.704  0.00  0.00    -0.196 N 
ATOM      2  C2  IND d   1      -1.420   0.790  -1.276  0.00  0.00     0.054 A 
ATOM      3  C3  IND d   1      -0.157   1.270  -1.237  0.00  0.00    -0.031 A 
ATOM      4  C4  IND d   1       1.993   0.148  -0.374  0.00  0.00     0.051 A 
ATOM      5  C5  IND d   1       2.441  -0.971   0.270  0.00  0.00    -0.031 A 
ATOM      6  C6  IND d   1       1.589  -1.996   0.627  0.00  0.00     0.015 A 
ATOM      7  C7  IND d   1       0.253  -1.944   0.342  0.00  0.00    -0.016 A 
ATOM      8  C8  IND d   1      -0.205  -0.806  -0.306  0.00  0.00    -0.047 A 
ATOM      9  C9  IND d   1       0.647   0.256  -0.633  0.00  0.00    -0.096 A 
ATOM     10  HN1 IND d   1      -2.184  -0.928  -0.610  0.00  0.00     0.298 HD
ENDROOT
TORSDOF 0
ENDMDL
