MODEL 1
REMARK minimizedAffinity -2.90458179
REMARK minimizedRMSD -1
REMARK  0 active torsions:
REMARK  status: ('A' for Active; 'I' for Inactive)
ROOT
ATOM      1  C   UNL d   1       0.123   2.113  -0.563  0.00  0.00     0.078 C 
ATOM      2  C1  UNL d   1       0.141   0.641  -0.278  0.00  0.00    -0.077 A 
ATOM      3  C2  UNL d   1      -0.547   0.110   0.820  0.00  0.00    -0.001 A 
ATOM      4  C3  UNL d   1      -0.512  -1.261   1.078  0.00  0.00     0.003 A 
ATOM      5  C4  UNL d   1       0.209  -2.112   0.244  0.00  0.00    -0.005 A 
ATOM      6  C5  UNL d   1       0.899  -1.593  -0.849  0.00  0.00     0.003 A 
ATOM      7  C6  UNL d   1       0.866  -0.222  -1.110  0.00  0.00    -0.001 A 
ENDROOT
TORSDOF 0
ENDMDL
