MODEL 1
REMARK minimizedAffinity -6.03898811
REMARK minimizedRMSD -1
REMARK  0 active torsions:
REMARK  status: ('A' for Active; 'I' for Inactive)
ROOT
ATOM      1  C   UNL d   1      -0.101   0.727  -0.086  0.00  0.00     0.078 C 
ATOM      2  C1  UNL d   1      -0.097  -0.771  -0.150  0.00  0.00    -0.077 A 
ATOM      3  C2  UNL d   1       0.286  -1.442  -1.318  0.00  0.00    -0.001 A 
ATOM      4  C3  UNL d   1       0.276  -2.837  -1.366  0.00  0.00     0.003 A 
ATOM      5  C4  UNL d   1      -0.117  -3.573  -0.249  0.00  0.00    -0.005 A 
ATOM      6  C5  UNL d   1      -0.501  -2.914   0.917  0.00  0.00     0.003 A 
ATOM      7  C6  UNL d   1      -0.492  -1.519   0.966  0.00  0.00    -0.001 A 
ENDROOT
TORSDOF 0
ENDMDL
