MODEL 1
REMARK minimizedAffinity -3.72322512
REMARK minimizedRMSD -1
REMARK  0 active torsions:
REMARK  status: ('A' for Active; 'I' for Inactive)
ROOT
ATOM      1  C   UNL d   1      -0.547  -2.633   0.778  0.00  0.00     0.078 C 
ATOM      2  C1  UNL d   1      -0.411  -1.210   0.323  0.00  0.00    -0.077 A 
ATOM      3  C2  UNL d   1      -0.901  -0.155   1.102  0.00  0.00    -0.001 A 
ATOM      4  C3  UNL d   1      -0.776   1.164   0.662  0.00  0.00     0.003 A 
ATOM      5  C4  UNL d   1      -0.163   1.439  -0.559  0.00  0.00    -0.005 A 
ATOM      6  C5  UNL d   1       0.325   0.395  -1.342  0.00  0.00     0.003 A 
ATOM      7  C6  UNL d   1       0.201  -0.924  -0.903  0.00  0.00    -0.001 A 
ENDROOT
TORSDOF 0
ENDMDL
