MODEL 1
REMARK minimizedAffinity -4.53676844
REMARK minimizedRMSD -1
REMARK  0 active torsions:
REMARK  status: ('A' for Active; 'I' for Inactive)
ROOT
ATOM      1  C   UNL d   1       0.211   1.030   0.011  0.00  0.00     0.078 C 
ATOM      2  C1  UNL d   1       0.011  -0.450   0.148  0.00  0.00    -0.077 A 
ATOM      3  C2  UNL d   1       0.841  -1.355  -0.524  0.00  0.00    -0.001 A 
ATOM      4  C3  UNL d   1       0.638  -2.730  -0.394  0.00  0.00     0.003 A 
ATOM      5  C4  UNL d   1      -0.396  -3.212   0.406  0.00  0.00    -0.005 A 
ATOM      6  C5  UNL d   1      -1.229  -2.319   1.077  0.00  0.00     0.003 A 
ATOM      7  C6  UNL d   1      -1.027  -0.943   0.949  0.00  0.00    -0.001 A 
ENDROOT
TORSDOF 0
ENDMDL
