MODEL 1
REMARK minimizedAffinity -4.22108078
REMARK minimizedRMSD -1
REMARK  0 active torsions:
REMARK  status: ('A' for Active; 'I' for Inactive)
ROOT
ATOM      1  C   UNL d   1       0.570  -2.981   0.396  0.00  0.00     0.078 C 
ATOM      2  C1  UNL d   1       0.311  -1.525   0.144  0.00  0.00    -0.077 A 
ATOM      3  C2  UNL d   1      -0.465  -0.767   1.029  0.00  0.00    -0.001 A 
ATOM      4  C3  UNL d   1      -0.705   0.584   0.778  0.00  0.00     0.003 A 
ATOM      5  C4  UNL d   1      -0.174   1.190  -0.360  0.00  0.00    -0.005 A 
ATOM      6  C5  UNL d   1       0.597   0.443  -1.248  0.00  0.00     0.003 A 
ATOM      7  C6  UNL d   1       0.839  -0.909  -0.998  0.00  0.00    -0.001 A 
ENDROOT
TORSDOF 0
ENDMDL
