MODEL 1
REMARK minimizedAffinity -5.31231403
REMARK minimizedRMSD -1
REMARK  0 active torsions:
REMARK  status: ('A' for Active; 'I' for Inactive)
ROOT
ATOM      1  C   UNL d   1      -0.364  -3.671   0.264  0.00  0.00     0.078 C 
ATOM      2  C1  UNL d   1      -0.201  -2.181   0.235  0.00  0.00    -0.077 A 
ATOM      3  C2  UNL d   1       0.319  -1.534  -0.893  0.00  0.00    -0.001 A 
ATOM      4  C3  UNL d   1       0.474  -0.147  -0.903  0.00  0.00     0.003 A 
ATOM      5  C4  UNL d   1       0.112   0.605   0.213  0.00  0.00    -0.005 A 
ATOM      6  C5  UNL d   1      -0.405  -0.030   1.341  0.00  0.00     0.003 A 
ATOM      7  C6  UNL d   1      -0.560  -1.417   1.352  0.00  0.00    -0.001 A 
ENDROOT
TORSDOF 0
ENDMDL
