MODEL 1
REMARK minimizedAffinity -2.99017024
REMARK minimizedRMSD -1
REMARK  0 active torsions:
REMARK  status: ('A' for Active; 'I' for Inactive)
ROOT
ATOM      1  C   UNL d   1      -0.101  -3.403   0.506  0.00  0.00     0.078 C 
ATOM      2  C1  UNL d   1      -0.216  -1.938   0.208  0.00  0.00    -0.077 A 
ATOM      3  C2  UNL d   1      -0.634  -1.033   1.191  0.00  0.00    -0.001 A 
ATOM      4  C3  UNL d   1      -0.746   0.327   0.896  0.00  0.00     0.003 A 
ATOM      5  C4  UNL d   1      -0.444   0.794  -0.381  0.00  0.00    -0.005 A 
ATOM      6  C5  UNL d   1      -0.030  -0.100  -1.367  0.00  0.00     0.003 A 
ATOM      7  C6  UNL d   1       0.083  -1.460  -1.074  0.00  0.00    -0.001 A 
ENDROOT
TORSDOF 0
ENDMDL
