MODEL 1
REMARK minimizedAffinity -5.94309998
REMARK minimizedRMSD -1
REMARK  0 active torsions:
REMARK  status: ('A' for Active; 'I' for Inactive)
ROOT
ATOM      1  C   UNL d   1       0.020   0.732  -0.407  0.00  0.00     0.078 C 
ATOM      2  C1  UNL d   1       0.004  -0.757  -0.584  0.00  0.00    -0.077 A 
ATOM      3  C2  UNL d   1      -0.071  -1.614   0.520  0.00  0.00    -0.001 A 
ATOM      4  C3  UNL d   1      -0.075  -2.998   0.340  0.00  0.00     0.003 A 
ATOM      5  C4  UNL d   1      -0.002  -3.537  -0.942  0.00  0.00    -0.005 A 
ATOM      6  C5  UNL d   1       0.076  -2.692  -2.047  0.00  0.00     0.003 A 
ATOM      7  C6  UNL d   1       0.080  -1.308  -1.870  0.00  0.00    -0.001 A 
ENDROOT
TORSDOF 0
ENDMDL
