MODEL 1
REMARK minimizedAffinity -5.14372349
REMARK minimizedRMSD -1
REMARK  0 active torsions:
REMARK  status: ('A' for Active; 'I' for Inactive)
ROOT
ATOM      1  C   UNL d   1      -0.439   1.213  -0.107  0.00  0.00     0.078 C 
ATOM      2  C1  UNL d   1      -0.289  -0.277  -0.049  0.00  0.00    -0.077 A 
ATOM      3  C2  UNL d   1      -0.799  -1.012   1.029  0.00  0.00    -0.001 A 
ATOM      4  C3  UNL d   1      -0.644  -2.398   1.074  0.00  0.00     0.003 A 
ATOM      5  C4  UNL d   1       0.022  -3.062   0.046  0.00  0.00    -0.005 A 
ATOM      6  C5  UNL d   1       0.535  -2.339  -1.029  0.00  0.00     0.003 A 
ATOM      7  C6  UNL d   1       0.381  -0.953  -1.076  0.00  0.00    -0.001 A 
ENDROOT
TORSDOF 0
ENDMDL
