MODEL 1
REMARK minimizedAffinity -4.44850779
REMARK minimizedRMSD -1
REMARK  0 active torsions:
REMARK  status: ('A' for Active; 'I' for Inactive)
ROOT
ATOM      1  C   UNL d   1       0.439   1.791   0.378  0.00  0.00     0.078 C 
ATOM      2  C1  UNL d   1       0.037   0.349   0.471  0.00  0.00    -0.077 A 
ATOM      3  C2  UNL d   1      -1.074  -0.042   1.228  0.00  0.00    -0.001 A 
ATOM      4  C3  UNL d   1      -1.430  -1.389   1.314  0.00  0.00     0.003 A 
ATOM      5  C4  UNL d   1      -0.680  -2.355   0.647  0.00  0.00    -0.005 A 
ATOM      6  C5  UNL d   1       0.429  -1.976  -0.106  0.00  0.00     0.003 A 
ATOM      7  C6  UNL d   1       0.787  -0.630  -0.194  0.00  0.00    -0.001 A 
ENDROOT
TORSDOF 0
ENDMDL
