MODEL 1
REMARK minimizedAffinity -4.07599497
REMARK minimizedRMSD -1
REMARK  0 active torsions:
REMARK  status: ('A' for Active; 'I' for Inactive)
ROOT
ATOM      1  C   UNL d   1      -0.201  -2.806   0.906  0.00  0.00     0.078 C 
ATOM      2  C1  UNL d   1      -0.164  -1.490   0.187  0.00  0.00    -0.077 A 
ATOM      3  C2  UNL d   1       0.413  -1.380  -1.084  0.00  0.00    -0.001 A 
ATOM      4  C3  UNL d   1       0.449  -0.147  -1.738  0.00  0.00     0.003 A 
ATOM      5  C4  UNL d   1      -0.088   0.984  -1.128  0.00  0.00    -0.005 A 
ATOM      6  C5  UNL d   1      -0.662   0.885   0.137  0.00  0.00     0.003 A 
ATOM      7  C6  UNL d   1      -0.699  -0.347   0.793  0.00  0.00    -0.001 A 
ENDROOT
TORSDOF 0
ENDMDL
