MODEL 1
REMARK minimizedAffinity -3.85032892
REMARK minimizedRMSD -1
REMARK  0 active torsions:
REMARK  status: ('A' for Active; 'I' for Inactive)
ROOT
ATOM      1  C   UNL d   1       0.796  -3.132   0.300  0.00  0.00     0.078 C 
ATOM      2  C1  UNL d   1      -0.015  -1.871   0.302  0.00  0.00    -0.077 A 
ATOM      3  C2  UNL d   1       0.212  -0.867  -0.647  0.00  0.00    -0.001 A 
ATOM      4  C3  UNL d   1      -0.544   0.306  -0.628  0.00  0.00     0.003 A 
ATOM      5  C4  UNL d   1      -1.532   0.487   0.338  0.00  0.00    -0.005 A 
ATOM      6  C5  UNL d   1      -1.764  -0.507   1.287  0.00  0.00     0.003 A 
ATOM      7  C6  UNL d   1      -1.009  -1.680   1.270  0.00  0.00    -0.001 A 
ENDROOT
TORSDOF 0
ENDMDL
