MODEL 1
REMARK minimizedAffinity 5.88497066
REMARK minimizedRMSD -1
REMARK  1 active torsions:
REMARK  status: ('A' for Active; 'I' for Inactive)
REMARK    1  A    between atoms: C1_2  and  C2_3 
ROOT
ATOM      1  C2  UNL d   1       5.086   2.164  -4.781  0.00  0.00    -0.076 A 
ATOM      2  C3  UNL d   1       5.816   1.873  -3.615  0.00  0.00     0.004 A 
ATOM      3  C4  UNL d   1       5.174   1.433  -2.459  0.00  0.00    -0.003 A 
ATOM      4  C5  UNL d   1       3.793   1.276  -2.450  0.00  0.00     0.000 A 
ATOM      5  C6  UNL d   1       3.055   1.542  -3.603  0.00  0.00     0.000 A 
ATOM      6  C7  UNL d   1       3.688   1.971  -4.782  0.00  0.00    -0.073 A 
ATOM      7  C8  UNL d   1       2.843   2.250  -5.995  0.00  0.00     0.078 C 
ENDROOT
BRANCH   1   8
ATOM      8  C1  UNL d   1       5.833   2.664  -5.997  0.00  0.00     0.053 C 
ATOM      9  C   UNL d   1       6.000   4.175  -5.998  0.00  0.00     0.018 C 
ENDBRANCH   1   8
TORSDOF 1
ENDMDL
