MODEL 1
REMARK minimizedAffinity 12.9499159
REMARK minimizedRMSD -1
REMARK  1 active torsions:
REMARK  status: ('A' for Active; 'I' for Inactive)
REMARK    1  A    between atoms: C1_2  and  C2_3 
ROOT
ATOM      1  C2  UNL d   1      -2.414   3.224  -5.944  0.00  0.00    -0.076 A 
ATOM      2  C3  UNL d   1      -1.723   4.448  -5.958  0.00  0.00     0.004 A 
ATOM      3  C4  UNL d   1      -2.410   5.660  -5.985  0.00  0.00    -0.003 A 
ATOM      4  C5  UNL d   1      -3.800   5.669  -5.999  0.00  0.00     0.000 A 
ATOM      5  C6  UNL d   1      -4.503   4.465  -5.968  0.00  0.00     0.000 A 
ATOM      6  C7  UNL d   1      -3.826   3.234  -5.924  0.00  0.00    -0.073 A 
ATOM      7  C8  UNL d   1      -4.634   1.966  -5.898  0.00  0.00     0.078 C 
ENDROOT
BRANCH   1   8
ATOM      8  C1  UNL d   1      -1.616   1.940  -5.942  0.00  0.00     0.053 C 
ATOM      9  C   UNL d   1      -0.462   1.974  -4.951  0.00  0.00     0.018 C 
ENDBRANCH   1   8
TORSDOF 1
ENDMDL
