MODEL 1
REMARK minimizedAffinity 17.8382816
REMARK minimizedRMSD -1
REMARK  1 active torsions:
REMARK  status: ('A' for Active; 'I' for Inactive)
REMARK    1  A    between atoms: C1_2  and  C2_3 
ROOT
ATOM      1  C2  UNL d   1       3.683  -5.390  -3.580  0.00  0.00    -0.076 A 
ATOM      2  C3  UNL d   1       4.181  -5.182  -4.878  0.00  0.00     0.004 A 
ATOM      3  C4  UNL d   1       3.372  -5.380  -5.996  0.00  0.00    -0.003 A 
ATOM      4  C5  UNL d   1       2.053  -5.788  -5.834  0.00  0.00     0.000 A 
ATOM      5  C6  UNL d   1       1.538  -5.981  -4.553  0.00  0.00     0.000 A 
ATOM      6  C7  UNL d   1       2.334  -5.770  -3.414  0.00  0.00    -0.073 A 
ATOM      7  C8  UNL d   1       1.729  -6.000  -2.057  0.00  0.00     0.078 C 
ENDROOT
BRANCH   1   8
ATOM      8  C1  UNL d   1       4.615  -5.186  -2.406  0.00  0.00     0.053 C 
ATOM      9  C   UNL d   1       5.973  -5.835  -2.621  0.00  0.00     0.018 C 
ENDBRANCH   1   8
TORSDOF 1
ENDMDL
