MODEL 1
REMARK minimizedAffinity 10.4632339
REMARK minimizedRMSD -1
REMARK  1 active torsions:
REMARK  status: ('A' for Active; 'I' for Inactive)
REMARK    1  A    between atoms: C1_2  and  C2_3 
ROOT
ATOM      1  C2  UNL d   1       3.481   2.811  -1.127  0.00  0.00    -0.076 A 
ATOM      2  C3  UNL d   1       4.154   1.656  -1.563  0.00  0.00     0.004 A 
ATOM      3  C4  UNL d   1       5.391   1.744  -2.199  0.00  0.00    -0.003 A 
ATOM      4  C5  UNL d   1       5.975   2.988  -2.409  0.00  0.00     0.000 A 
ATOM      5  C6  UNL d   1       5.330   4.142  -1.967  0.00  0.00     0.000 A 
ATOM      6  C7  UNL d   1       4.090   4.070  -1.309  0.00  0.00    -0.073 A 
ATOM      7  C8  UNL d   1       3.436   5.348  -0.860  0.00  0.00     0.078 C 
ENDROOT
BRANCH   1   8
ATOM      8  C1  UNL d   1       2.129   2.655  -0.467  0.00  0.00     0.053 C 
ATOM      9  C   UNL d   1       2.238   2.292   1.006  0.00  0.00     0.018 C 
ENDBRANCH   1   8
TORSDOF 1
ENDMDL
