MODEL 1
REMARK minimizedAffinity 2.04739118
REMARK minimizedRMSD -1
REMARK  1 active torsions:
REMARK  status: ('A' for Active; 'I' for Inactive)
REMARK    1  A    between atoms: C1_2  and  C2_3 
ROOT
ATOM      1  C2  UNL d   1       3.004   5.138   3.555  0.00  0.00    -0.076 A 
ATOM      2  C3  UNL d   1       1.698   5.654   3.599  0.00  0.00     0.004 A 
ATOM      3  C4  UNL d   1       1.103   6.000   4.811  0.00  0.00    -0.003 A 
ATOM      4  C5  UNL d   1       1.807   5.836   6.000  0.00  0.00     0.000 A 
ATOM      5  C6  UNL d   1       3.111   5.342   5.973  0.00  0.00     0.000 A 
ATOM      6  C7  UNL d   1       3.730   5.004   4.758  0.00  0.00    -0.073 A 
ATOM      7  C8  UNL d   1       5.136   4.470   4.788  0.00  0.00     0.078 C 
ENDROOT
BRANCH   1   8
ATOM      8  C1  UNL d   1       3.587   4.756   2.213  0.00  0.00     0.053 C 
ATOM      9  C   UNL d   1       2.971   3.483   1.652  0.00  0.00     0.018 C 
ENDBRANCH   1   8
TORSDOF 1
ENDMDL
