MODEL 1
REMARK minimizedAffinity 5.3136344
REMARK minimizedRMSD -1
REMARK  1 active torsions:
REMARK  status: ('A' for Active; 'I' for Inactive)
REMARK    1  A    between atoms: C1_2  and  C2_3 
ROOT
ATOM      1  C2  UNL d   1       2.486   2.750  -5.799  0.00  0.00    -0.076 A 
ATOM      2  C3  UNL d   1       1.528   3.759  -5.998  0.00  0.00     0.004 A 
ATOM      3  C4  UNL d   1       0.165   3.468  -5.982  0.00  0.00    -0.003 A 
ATOM      4  C5  UNL d   1      -0.263   2.163  -5.768  0.00  0.00     0.000 A 
ATOM      5  C6  UNL d   1       0.673   1.152  -5.552  0.00  0.00     0.000 A 
ATOM      6  C7  UNL d   1       2.050   1.431  -5.548  0.00  0.00    -0.073 A 
ATOM      7  C8  UNL d   1       3.016   0.301  -5.316  0.00  0.00     0.078 C 
ENDROOT
BRANCH   1   8
ATOM      8  C1  UNL d   1       3.950   3.121  -5.854  0.00  0.00     0.053 C 
ATOM      9  C   UNL d   1       4.167   4.619  -5.999  0.00  0.00     0.018 C 
ENDBRANCH   1   8
TORSDOF 1
ENDMDL
