MODEL 1
REMARK minimizedAffinity 4.92798281
REMARK minimizedRMSD -1
REMARK  1 active torsions:
REMARK  status: ('A' for Active; 'I' for Inactive)
REMARK    1  A    between atoms: C1_2  and  C2_3 
ROOT
ATOM      1  C2  UNL d   1       2.840  -0.500   0.040  0.00  0.00    -0.076 A 
ATOM      2  C3  UNL d   1       2.235  -0.098   1.243  0.00  0.00     0.004 A 
ATOM      3  C4  UNL d   1       2.118   1.252   1.570  0.00  0.00    -0.003 A 
ATOM      4  C5  UNL d   1       2.603   2.221   0.699  0.00  0.00     0.000 A 
ATOM      5  C6  UNL d   1       3.190   1.840  -0.507  0.00  0.00     0.000 A 
ATOM      6  C7  UNL d   1       3.302   0.485  -0.860  0.00  0.00    -0.073 A 
ATOM      7  C8  UNL d   1       3.949   0.131  -2.170  0.00  0.00     0.078 C 
ENDROOT
BRANCH   1   8
ATOM      8  C1  UNL d   1       2.964  -1.979  -0.250  0.00  0.00     0.053 C 
ATOM      9  C   UNL d   1       1.948  -2.810   0.520  0.00  0.00     0.018 C 
ENDBRANCH   1   8
TORSDOF 1
ENDMDL
