MODEL 1
REMARK minimizedAffinity 7.10800934
REMARK minimizedRMSD -1
REMARK  1 active torsions:
REMARK  status: ('A' for Active; 'I' for Inactive)
REMARK    1  A    between atoms: C1_2  and  C2_3 
ROOT
ATOM      1  C2  UNL d   1      -3.416   3.414  -5.736  0.00  0.00    -0.076 A 
ATOM      2  C3  UNL d   1      -2.613   4.567  -5.788  0.00  0.00     0.004 A 
ATOM      3  C4  UNL d   1      -3.182   5.832  -5.919  0.00  0.00    -0.003 A 
ATOM      4  C5  UNL d   1      -4.564   5.966  -6.000  0.00  0.00     0.000 A 
ATOM      5  C6  UNL d   1      -5.377   4.834  -5.932  0.00  0.00     0.000 A 
ATOM      6  C7  UNL d   1      -4.819   3.553  -5.784  0.00  0.00    -0.073 A 
ATOM      7  C8  UNL d   1      -5.743   2.367  -5.723  0.00  0.00     0.078 C 
ENDROOT
BRANCH   1   8
ATOM      8  C1  UNL d   1      -2.741   2.066  -5.621  0.00  0.00     0.053 C 
ATOM      9  C   UNL d   1      -1.276   2.179  -5.228  0.00  0.00     0.018 C 
ENDBRANCH   1   8
TORSDOF 1
ENDMDL
