MODEL 1
REMARK minimizedAffinity 6.82551289
REMARK minimizedRMSD -1
REMARK  1 active torsions:
REMARK  status: ('A' for Active; 'I' for Inactive)
REMARK    1  A    between atoms: C1_2  and  C2_3 
ROOT
ATOM      1  C2  UNL d   1       1.461   2.535  -1.903  0.00  0.00    -0.076 A 
ATOM      2  C3  UNL d   1       1.640   2.604  -0.510  0.00  0.00     0.004 A 
ATOM      3  C4  UNL d   1       2.634   1.859   0.123  0.00  0.00    -0.003 A 
ATOM      4  C5  UNL d   1       3.464   1.033  -0.626  0.00  0.00     0.000 A 
ATOM      5  C6  UNL d   1       3.311   0.965  -2.011  0.00  0.00     0.000 A 
ATOM      6  C7  UNL d   1       2.326   1.722  -2.667  0.00  0.00    -0.073 A 
ATOM      7  C8  UNL d   1       2.201   1.606  -4.161  0.00  0.00     0.078 C 
ENDROOT
BRANCH   1   8
ATOM      8  C1  UNL d   1       0.349   3.345  -2.531  0.00  0.00     0.053 C 
ATOM      9  C   UNL d   1      -1.031   2.876  -2.096  0.00  0.00     0.018 C 
ENDBRANCH   1   8
TORSDOF 1
ENDMDL
