MODEL 1
REMARK minimizedAffinity 17.2498779
REMARK minimizedRMSD -1
REMARK  1 active torsions:
REMARK  status: ('A' for Active; 'I' for Inactive)
REMARK    1  A    between atoms: C1_2  and  C2_3 
ROOT
ATOM      1  C2  UNL d   1       4.792   4.127   4.872  0.00  0.00    -0.076 A 
ATOM      2  C3  UNL d   1       4.752   5.072   5.912  0.00  0.00     0.004 A 
ATOM      3  C4  UNL d   1       3.714   5.998   6.000  0.00  0.00    -0.003 A 
ATOM      4  C5  UNL d   1       2.698   5.993   5.050  0.00  0.00     0.000 A 
ATOM      5  C6  UNL d   1       2.712   5.051   4.023  0.00  0.00     0.000 A 
ATOM      6  C7  UNL d   1       3.743   4.100   3.929  0.00  0.00    -0.073 A 
ATOM      7  C8  UNL d   1       3.711   3.111   2.796  0.00  0.00     0.078 C 
ENDROOT
BRANCH   1   8
ATOM      8  C1  UNL d   1       5.957   3.165   4.812  0.00  0.00     0.053 C 
ATOM      9  C   UNL d   1       5.986   2.211   5.997  0.00  0.00     0.018 C 
ENDBRANCH   1   8
TORSDOF 1
ENDMDL
