MODEL 1
REMARK minimizedAffinity 13.6066103
REMARK minimizedRMSD -1
REMARK  1 active torsions:
REMARK  status: ('A' for Active; 'I' for Inactive)
REMARK    1  A    between atoms: C1_2  and  C2_3 
ROOT
ATOM      1  C2  UNL d   1       4.081   3.939   3.840  0.00  0.00    -0.076 A 
ATOM      2  C3  UNL d   1       5.202   3.920   4.687  0.00  0.00     0.004 A 
ATOM      3  C4  UNL d   1       5.410   4.930   5.625  0.00  0.00    -0.003 A 
ATOM      4  C5  UNL d   1       4.499   5.975   5.731  0.00  0.00     0.000 A 
ATOM      5  C6  UNL d   1       3.371   6.000   4.911  0.00  0.00     0.000 A 
ATOM      6  C7  UNL d   1       3.139   4.981   3.971  0.00  0.00    -0.073 A 
ATOM      7  C8  UNL d   1       1.909   5.062   3.108  0.00  0.00     0.078 C 
ENDROOT
BRANCH   1   8
ATOM      8  C1  UNL d   1       3.923   2.831   2.823  0.00  0.00     0.053 C 
ATOM      9  C   UNL d   1       2.636   2.043   3.015  0.00  0.00     0.018 C 
ENDBRANCH   1   8
TORSDOF 1
ENDMDL
