MODEL 1
REMARK minimizedAffinity 21.2358112
REMARK minimizedRMSD -1
REMARK  1 active torsions:
REMARK  status: ('A' for Active; 'I' for Inactive)
REMARK    1  A    between atoms: C1_2  and  C2_3 
ROOT
ATOM      1  C2  UNL d   1      -2.488   3.493  -5.936  0.00  0.00    -0.076 A 
ATOM      2  C3  UNL d   1      -1.778   4.706  -5.938  0.00  0.00     0.004 A 
ATOM      3  C4  UNL d   1      -2.447   5.929  -5.965  0.00  0.00    -0.003 A 
ATOM      4  C5  UNL d   1      -3.837   5.957  -5.991  0.00  0.00     0.000 A 
ATOM      5  C6  UNL d   1      -4.558   4.764  -5.972  0.00  0.00     0.000 A 
ATOM      6  C7  UNL d   1      -3.899   3.523  -5.928  0.00  0.00    -0.073 A 
ATOM      7  C8  UNL d   1      -4.725   2.266  -5.916  0.00  0.00     0.078 C 
ENDROOT
BRANCH   1   8
ATOM      8  C1  UNL d   1      -1.707   2.198  -5.933  0.00  0.00     0.053 C 
ATOM      9  C   UNL d   1      -0.353   2.335  -5.255  0.00  0.00     0.018 C 
ENDBRANCH   1   8
TORSDOF 1
ENDMDL
