MODEL 1
REMARK minimizedAffinity 17.1572933
REMARK minimizedRMSD -1
REMARK  0 active torsions:
REMARK  status: ('A' for Active; 'I' for Inactive)
ROOT
ATOM      1  C   UNL d   1      -5.027  -2.375  -2.391  0.00  0.00     0.124 A 
ATOM      2  C1  UNL d   1      -4.995  -3.695  -1.964  0.00  0.00     0.062 A 
ATOM      3  C2  UNL d   1      -5.189  -4.731  -2.873  0.00  0.00     0.162 A 
ATOM      4  C3  UNL d   1      -5.417  -4.450  -4.220  0.00  0.00    -0.034 A 
ATOM      5  C4  UNL d   1      -5.449  -3.120  -4.643  0.00  0.00     0.162 A 
ATOM      6  C5  UNL d   1      -5.254  -2.089  -3.730  0.00  0.00     0.062 A 
ATOM      7  F   UNL d   1      -5.285  -0.814  -4.145  0.00  0.00    -0.097 F 
ATOM      8  F1  UNL d   1      -5.665  -2.815  -5.931  0.00  0.00    -0.096 F 
ATOM      9  I   UNL d   1      -5.708  -5.996  -5.583  0.00  0.00    -0.060 I 
ATOM     10  F2  UNL d   1      -5.153  -5.997  -2.432  0.00  0.00    -0.096 F 
ATOM     11  F3  UNL d   1      -4.777  -3.974  -0.670  0.00  0.00    -0.097 F 
ATOM     12  F4  UNL d   1      -4.840  -1.381  -1.514  0.00  0.00    -0.092 F 
ENDROOT
TORSDOF 0
ENDMDL
