MODEL 1
REMARK minimizedAffinity 14.5534563
REMARK minimizedRMSD -1
REMARK  0 active torsions:
REMARK  status: ('A' for Active; 'I' for Inactive)
ROOT
ATOM      1  C   UNL d   1       0.860  -2.878   3.173  0.00  0.00     0.124 A 
ATOM      2  C1  UNL d   1       1.784  -2.130   2.456  0.00  0.00     0.062 A 
ATOM      3  C2  UNL d   1       3.142  -2.235   2.740  0.00  0.00     0.162 A 
ATOM      4  C3  UNL d   1       3.586  -3.092   3.747  0.00  0.00    -0.034 A 
ATOM      5  C4  UNL d   1       2.651  -3.840   4.465  0.00  0.00     0.162 A 
ATOM      6  C5  UNL d   1       1.295  -3.732   4.177  0.00  0.00     0.062 A 
ATOM      7  F   UNL d   1       0.404  -4.455   4.872  0.00  0.00    -0.097 F 
ATOM      8  F1  UNL d   1       3.044  -4.674   5.440  0.00  0.00    -0.096 F 
ATOM      9  I   UNL d   1       5.616  -3.252   4.176  0.00  0.00    -0.060 I 
ATOM     10  F2  UNL d   1       4.012  -1.501   2.031  0.00  0.00    -0.096 F 
ATOM     11  F3  UNL d   1       1.366  -1.303   1.486  0.00  0.00    -0.097 F 
ATOM     12  F4  UNL d   1      -0.446  -2.774   2.898  0.00  0.00    -0.092 F 
ENDROOT
TORSDOF 0
ENDMDL
