MODEL 1
REMARK minimizedAffinity 18.2660465
REMARK minimizedRMSD -1
REMARK  0 active torsions:
REMARK  status: ('A' for Active; 'I' for Inactive)
ROOT
ATOM      1  C   UNL d   1       0.718  -3.232   1.565  0.00  0.00     0.124 A 
ATOM      2  C1  UNL d   1       0.896  -3.883   0.352  0.00  0.00     0.062 A 
ATOM      3  C2  UNL d   1       1.387  -3.188  -0.750  0.00  0.00     0.162 A 
ATOM      4  C3  UNL d   1       1.705  -1.834  -0.643  0.00  0.00    -0.034 A 
ATOM      5  C4  UNL d   1       1.523  -1.186   0.580  0.00  0.00     0.162 A 
ATOM      6  C5  UNL d   1       1.032  -1.885   1.678  0.00  0.00     0.062 A 
ATOM      7  F   UNL d   1       0.861  -1.255   2.849  0.00  0.00    -0.097 F 
ATOM      8  F1  UNL d   1       1.819   0.115   0.717  0.00  0.00    -0.096 F 
ATOM      9  I   UNL d   1       2.440  -0.792  -2.288  0.00  0.00    -0.060 I 
ATOM     10  F2  UNL d   1       1.548  -3.842  -1.910  0.00  0.00    -0.096 F 
ATOM     11  F3  UNL d   1       0.592  -5.184   0.240  0.00  0.00    -0.097 F 
ATOM     12  F4  UNL d   1       0.245  -3.903   2.623  0.00  0.00    -0.092 F 
ENDROOT
TORSDOF 0
ENDMDL
