MODEL 1
REMARK minimizedAffinity 19.5583801
REMARK minimizedRMSD -1
REMARK  0 active torsions:
REMARK  status: ('A' for Active; 'I' for Inactive)
ROOT
ATOM      1  C   UNL d   1       2.631  -1.854  -3.007  0.00  0.00     0.124 A 
ATOM      2  C1  UNL d   1       3.941  -2.234  -3.265  0.00  0.00     0.062 A 
ATOM      3  C2  UNL d   1       4.735  -1.473  -4.118  0.00  0.00     0.162 A 
ATOM      4  C3  UNL d   1       4.222  -0.323  -4.718  0.00  0.00    -0.034 A 
ATOM      5  C4  UNL d   1       2.904   0.052  -4.455  0.00  0.00     0.162 A 
ATOM      6  C5  UNL d   1       2.114  -0.712  -3.602  0.00  0.00     0.062 A 
ATOM      7  F   UNL d   1       0.848  -0.343  -3.354  0.00  0.00    -0.097 F 
ATOM      8  F1  UNL d   1       2.379   1.152  -5.015  0.00  0.00    -0.096 F 
ATOM      9  I   UNL d   1       5.407   0.818  -5.994  0.00  0.00    -0.060 I 
ATOM     10  F2  UNL d   1       5.997  -1.864  -4.349  0.00  0.00    -0.096 F 
ATOM     11  F3  UNL d   1       4.442  -3.338  -2.693  0.00  0.00    -0.097 F 
ATOM     12  F4  UNL d   1       1.868  -2.589  -2.187  0.00  0.00    -0.092 F 
ENDROOT
TORSDOF 0
ENDMDL
