MODEL 1
REMARK minimizedAffinity 11.9088087
REMARK minimizedRMSD -1
REMARK  0 active torsions:
REMARK  status: ('A' for Active; 'I' for Inactive)
ROOT
ATOM      1  C   UNL d   1       2.435  -1.578   1.874  0.00  0.00     0.124 A 
ATOM      2  C1  UNL d   1       1.061  -1.600   1.675  0.00  0.00     0.062 A 
ATOM      3  C2  UNL d   1       0.294  -2.632   2.206  0.00  0.00     0.162 A 
ATOM      4  C3  UNL d   1       0.898  -3.651   2.943  0.00  0.00    -0.034 A 
ATOM      5  C4  UNL d   1       2.280  -3.623   3.138  0.00  0.00     0.162 A 
ATOM      6  C5  UNL d   1       3.043  -2.589   2.605  0.00  0.00     0.062 A 
ATOM      7  F   UNL d   1       4.369  -2.570   2.798  0.00  0.00    -0.097 F 
ATOM      8  F1  UNL d   1       2.892  -4.587   3.841  0.00  0.00    -0.096 F 
ATOM      9  I   UNL d   1      -0.247  -5.197   3.739  0.00  0.00    -0.060 I 
ATOM     10  F2  UNL d   1      -1.032  -2.628   1.999  0.00  0.00    -0.096 F 
ATOM     11  F3  UNL d   1       0.472  -0.625   0.969  0.00  0.00    -0.097 F 
ATOM     12  F4  UNL d   1       3.171  -0.584   1.361  0.00  0.00    -0.092 F 
ENDROOT
TORSDOF 0
ENDMDL
