MODEL 1
REMARK minimizedAffinity 19.3384075
REMARK minimizedRMSD -1
REMARK  0 active torsions:
REMARK  status: ('A' for Active; 'I' for Inactive)
ROOT
ATOM      1  C   UNL d   1      -5.490  -2.378  -2.425  0.00  0.00     0.124 A 
ATOM      2  C1  UNL d   1      -5.467  -3.705  -2.017  0.00  0.00     0.062 A 
ATOM      3  C2  UNL d   1      -5.608  -4.727  -2.951  0.00  0.00     0.162 A 
ATOM      4  C3  UNL d   1      -5.773  -4.427  -4.303  0.00  0.00    -0.034 A 
ATOM      5  C4  UNL d   1      -5.796  -3.090  -4.706  0.00  0.00     0.162 A 
ATOM      6  C5  UNL d   1      -5.655  -2.072  -3.769  0.00  0.00     0.062 A 
ATOM      7  F   UNL d   1      -5.678  -0.791  -4.165  0.00  0.00    -0.097 F 
ATOM      8  F1  UNL d   1      -5.953  -2.767  -5.998  0.00  0.00    -0.096 F 
ATOM      9  I   UNL d   1      -5.984  -5.953  -5.703  0.00  0.00    -0.060 I 
ATOM     10  F2  UNL d   1      -5.581  -6.000  -2.528  0.00  0.00    -0.096 F 
ATOM     11  F3  UNL d   1      -5.309  -4.003  -0.719  0.00  0.00    -0.097 F 
ATOM     12  F4  UNL d   1      -5.356  -1.396  -1.524  0.00  0.00    -0.092 F 
ENDROOT
TORSDOF 0
ENDMDL
