MODEL 1
REMARK minimizedAffinity 6.52779484
REMARK minimizedRMSD -1
REMARK  0 active torsions:
REMARK  status: ('A' for Active; 'I' for Inactive)
ROOT
ATOM      1  C   UNL d   1       1.342  -3.569   2.939  0.00  0.00     0.124 A 
ATOM      2  C1  UNL d   1       2.661  -3.251   3.232  0.00  0.00     0.062 A 
ATOM      3  C2  UNL d   1       3.186  -2.019   2.851  0.00  0.00     0.162 A 
ATOM      4  C3  UNL d   1       2.391  -1.095   2.173  0.00  0.00    -0.034 A 
ATOM      5  C4  UNL d   1       1.065  -1.422   1.881  0.00  0.00     0.162 A 
ATOM      6  C5  UNL d   1       0.546  -2.654   2.264  0.00  0.00     0.062 A 
ATOM      7  F   UNL d   1      -0.729  -2.959   1.981  0.00  0.00    -0.097 F 
ATOM      8  F1  UNL d   1       0.273  -0.557   1.231  0.00  0.00    -0.096 F 
ATOM      9  I   UNL d   1       3.171   0.748   1.602  0.00  0.00    -0.060 I 
ATOM     10  F2  UNL d   1       4.464  -1.739   3.146  0.00  0.00    -0.096 F 
ATOM     11  F3  UNL d   1       3.433  -4.133   3.882  0.00  0.00    -0.097 F 
ATOM     12  F4  UNL d   1       0.841  -4.755   3.306  0.00  0.00    -0.092 F 
ENDROOT
TORSDOF 0
ENDMDL
