MODEL 1
REMARK minimizedAffinity 2.45300603
REMARK minimizedRMSD -1
REMARK  0 active torsions:
REMARK  status: ('A' for Active; 'I' for Inactive)
ROOT
ATOM      1  C   UNL d   1       0.935  -2.363   2.504  0.00  0.00     0.124 A 
ATOM      2  C1  UNL d   1       1.383  -3.196   3.520  0.00  0.00     0.062 A 
ATOM      3  C2  UNL d   1       2.747  -3.335   3.761  0.00  0.00     0.162 A 
ATOM      4  C3  UNL d   1       3.673  -2.639   2.984  0.00  0.00    -0.034 A 
ATOM      5  C4  UNL d   1       3.215  -1.804   1.963  0.00  0.00     0.162 A 
ATOM      6  C5  UNL d   1       1.851  -1.668   1.727  0.00  0.00     0.062 A 
ATOM      7  F   UNL d   1       1.420  -0.863   0.745  0.00  0.00    -0.097 F 
ATOM      8  F1  UNL d   1       4.078  -1.120   1.198  0.00  0.00    -0.096 F 
ATOM      9  I   UNL d   1       5.713  -2.845   3.340  0.00  0.00    -0.060 I 
ATOM     10  F2  UNL d   1       3.151  -4.147   4.749  0.00  0.00    -0.096 F 
ATOM     11  F3  UNL d   1       0.500  -3.869   4.272  0.00  0.00    -0.097 F 
ATOM     12  F4  UNL d   1      -0.378  -2.231   2.275  0.00  0.00    -0.092 F 
ENDROOT
TORSDOF 0
ENDMDL
