MODEL 1
REMARK minimizedAffinity 13.0580149
REMARK minimizedRMSD -1
REMARK  0 active torsions:
REMARK  status: ('A' for Active; 'I' for Inactive)
ROOT
ATOM      1  C   UNL d   1       1.477  -4.508   2.603  0.00  0.00     0.124 A 
ATOM      2  C1  UNL d   1       0.823  -3.648   1.731  0.00  0.00     0.062 A 
ATOM      3  C2  UNL d   1       0.874  -2.272   1.936  0.00  0.00     0.162 A 
ATOM      4  C3  UNL d   1       1.581  -1.747   3.017  0.00  0.00    -0.034 A 
ATOM      5  C4  UNL d   1       2.235  -2.618   3.890  0.00  0.00     0.162 A 
ATOM      6  C5  UNL d   1       2.182  -3.992   3.682  0.00  0.00     0.062 A 
ATOM      7  F   UNL d   1       2.813  -4.821   4.525  0.00  0.00    -0.097 F 
ATOM      8  F1  UNL d   1       2.924  -2.146   4.940  0.00  0.00    -0.096 F 
ATOM      9  I   UNL d   1       1.658   0.310   3.327  0.00  0.00    -0.060 I 
ATOM     10  F2  UNL d   1       0.233  -1.465   1.077  0.00  0.00    -0.096 F 
ATOM     11  F3  UNL d   1       0.141  -4.144   0.689  0.00  0.00    -0.097 F 
ATOM     12  F4  UNL d   1       1.426  -5.831   2.404  0.00  0.00    -0.092 F 
ENDROOT
TORSDOF 0
ENDMDL
