MODEL 1
REMARK minimizedAffinity 4.47865868
REMARK minimizedRMSD -1
REMARK  1 active torsions:
REMARK  status: ('A' for Active; 'I' for Inactive)
REMARK    1  A    between atoms: C3_4  and  O_7 
ROOT
ATOM      1  C   UNL d   1      -4.325   4.336  -5.953  0.00  0.00    -0.033 A 
ATOM      2  C1  UNL d   1      -3.997   2.979  -5.959  0.00  0.00     0.039 A 
ATOM      3  C2  UNL d   1      -3.174   2.454  -4.961  0.00  0.00    -0.080 A 
ATOM      4  C3  UNL d   1      -2.687   3.294  -3.964  0.00  0.00     0.150 A 
ATOM      5  C4  UNL d   1      -3.013   4.646  -3.949  0.00  0.00    -0.007 A 
ATOM      6  C5  UNL d   1      -3.834   5.170  -4.947  0.00  0.00     0.039 A 
ENDROOT
BRANCH   4   7
ATOM      7  O   UNL d   1      -1.877   2.827  -2.972  0.00  0.00    -0.526 OA
ATOM      8  H5  UNL d   1      -1.714   1.882  -3.126  0.00  0.00     0.418 HD
ENDBRANCH   4   7
TORSDOF 1
ENDMDL
