MODEL 1
REMARK minimizedAffinity 6.58029318
REMARK minimizedRMSD -1
REMARK  1 active torsions:
REMARK  status: ('A' for Active; 'I' for Inactive)
REMARK    1  A    between atoms: C3_4  and  O_7 
ROOT
ATOM      1  C   UNL d   1       1.251  -1.289   2.041  0.00  0.00    -0.033 A 
ATOM      2  C1  UNL d   1       2.218  -1.933   2.815  0.00  0.00     0.039 A 
ATOM      3  C2  UNL d   1       2.877  -3.059   2.316  0.00  0.00    -0.080 A 
ATOM      4  C3  UNL d   1       2.560  -3.529   1.044  0.00  0.00     0.150 A 
ATOM      5  C4  UNL d   1       1.600  -2.889   0.267  0.00  0.00    -0.007 A 
ATOM      6  C5  UNL d   1       0.943  -1.766   0.767  0.00  0.00     0.039 A 
ENDROOT
BRANCH   4   7
ATOM      7  O   UNL d   1       3.172  -4.627   0.517  0.00  0.00    -0.526 OA
ATOM      8  H5  UNL d   1       3.791  -4.981   1.178  0.00  0.00     0.418 HD
ENDBRANCH   4   7
TORSDOF 1
ENDMDL
