MODEL 1
REMARK minimizedAffinity 6.23295307
REMARK minimizedRMSD -1
REMARK  1 active torsions:
REMARK  status: ('A' for Active; 'I' for Inactive)
REMARK    1  A    between atoms: C3_4  and  O_7 
ROOT
ATOM      1  C   UNL d   1       1.117  -2.740   0.778  0.00  0.00    -0.033 A 
ATOM      2  C1  UNL d   1       1.758  -3.585  -0.130  0.00  0.00     0.039 A 
ATOM      3  C2  UNL d   1       3.054  -3.295  -0.561  0.00  0.00    -0.080 A 
ATOM      4  C3  UNL d   1       3.697  -2.159  -0.075  0.00  0.00     0.150 A 
ATOM      5  C4  UNL d   1       3.066  -1.316   0.833  0.00  0.00    -0.007 A 
ATOM      6  C5  UNL d   1       1.771  -1.607   1.261  0.00  0.00     0.039 A 
ENDROOT
BRANCH   4   7
ATOM      7  O   UNL d   1       4.960  -1.832  -0.470  0.00  0.00    -0.526 OA
ATOM      8  H5  UNL d   1       5.259  -2.490  -1.120  0.00  0.00     0.418 HD
ENDBRANCH   4   7
TORSDOF 1
ENDMDL
