MODEL 1
REMARK minimizedAffinity 6.98475742
REMARK minimizedRMSD -1
REMARK  1 active torsions:
REMARK  status: ('A' for Active; 'I' for Inactive)
REMARK    1  A    between atoms: C3_4  and  O_7 
ROOT
ATOM      1  C   UNL d   1      -3.175  -0.274  -1.515  0.00  0.00    -0.033 A 
ATOM      2  C1  UNL d   1      -3.745   0.968  -1.800  0.00  0.00     0.039 A 
ATOM      3  C2  UNL d   1      -2.972   1.976  -2.381  0.00  0.00    -0.080 A 
ATOM      4  C3  UNL d   1      -1.634   1.728  -2.674  0.00  0.00     0.150 A 
ATOM      5  C4  UNL d   1      -1.061   0.491  -2.397  0.00  0.00    -0.007 A 
ATOM      6  C5  UNL d   1      -1.834  -0.514  -1.815  0.00  0.00     0.039 A 
ENDROOT
BRANCH   4   7
ATOM      7  O   UNL d   1      -0.839   2.681  -3.237  0.00  0.00    -0.526 OA
ATOM      8  H5  UNL d   1      -1.362   3.493  -3.345  0.00  0.00     0.418 HD
ENDBRANCH   4   7
TORSDOF 1
ENDMDL
