MODEL 1
REMARK minimizedAffinity 7.20100975
REMARK minimizedRMSD -1
REMARK  1 active torsions:
REMARK  status: ('A' for Active; 'I' for Inactive)
REMARK    1  A    between atoms: C3_4  and  O_7 
ROOT
ATOM      1  C   UNL d   1       1.231   4.819  -5.554  0.00  0.00    -0.033 A 
ATOM      2  C1  UNL d   1       1.944   3.632  -5.373  0.00  0.00     0.039 A 
ATOM      3  C2  UNL d   1       3.333   3.623  -5.507  0.00  0.00    -0.080 A 
ATOM      4  C3  UNL d   1       3.997   4.806  -5.820  0.00  0.00     0.150 A 
ATOM      5  C4  UNL d   1       3.294   5.993  -5.997  0.00  0.00    -0.007 A 
ATOM      6  C5  UNL d   1       1.906   6.000  -5.865  0.00  0.00     0.039 A 
ENDROOT
BRANCH   4   7
ATOM      7  O   UNL d   1       5.352   4.846  -5.965  0.00  0.00    -0.526 OA
ATOM      8  H5  UNL d   1       5.701   3.947  -5.842  0.00  0.00     0.418 HD
ENDBRANCH   4   7
TORSDOF 1
ENDMDL
