MODEL 1
REMARK minimizedAffinity 3.07007313
REMARK minimizedRMSD -1
REMARK  1 active torsions:
REMARK  status: ('A' for Active; 'I' for Inactive)
REMARK    1  A    between atoms: C3_4  and  O_7 
ROOT
ATOM      1  C   UNL d   1       5.189   4.640  -5.910  0.00  0.00    -0.033 A 
ATOM      2  C1  UNL d   1       4.406   3.490  -5.799  0.00  0.00     0.039 A 
ATOM      3  C2  UNL d   1       3.013   3.591  -5.774  0.00  0.00    -0.080 A 
ATOM      4  C3  UNL d   1       2.418   4.846  -5.861  0.00  0.00     0.150 A 
ATOM      5  C4  UNL d   1       3.192   5.996  -5.976  0.00  0.00    -0.007 A 
ATOM      6  C5  UNL d   1       4.582   5.893  -6.000  0.00  0.00     0.039 A 
ENDROOT
BRANCH   4   7
ATOM      7  O   UNL d   1       1.063   4.995  -5.836  0.00  0.00    -0.526 OA
ATOM      8  H5  UNL d   1       0.659   4.118  -5.725  0.00  0.00     0.418 HD
ENDBRANCH   4   7
TORSDOF 1
ENDMDL
