MODEL 1
REMARK minimizedAffinity 6.94945145
REMARK minimizedRMSD -1
REMARK  1 active torsions:
REMARK  status: ('A' for Active; 'I' for Inactive)
REMARK    1  A    between atoms: C3_4  and  O_7 
ROOT
ATOM      1  C   UNL d   1       1.821  -0.747   1.636  0.00  0.00    -0.033 A 
ATOM      2  C1  UNL d   1       0.607  -1.436   1.646  0.00  0.00     0.039 A 
ATOM      3  C2  UNL d   1       0.519  -2.706   1.072  0.00  0.00    -0.080 A 
ATOM      4  C3  UNL d   1       1.651  -3.275   0.494  0.00  0.00     0.150 A 
ATOM      5  C4  UNL d   1       2.864  -2.595   0.484  0.00  0.00    -0.007 A 
ATOM      6  C5  UNL d   1       2.950  -1.327   1.057  0.00  0.00     0.039 A 
ENDROOT
BRANCH   4   7
ATOM      7  O   UNL d   1       1.613  -4.509  -0.083  0.00  0.00    -0.526 OA
ATOM      8  H5  UNL d   1       0.703  -4.847  -0.027  0.00  0.00     0.418 HD
ENDBRANCH   4   7
TORSDOF 1
ENDMDL
