MODEL 1
REMARK minimizedAffinity 5.48282385
REMARK minimizedRMSD -1
REMARK  1 active torsions:
REMARK  status: ('A' for Active; 'I' for Inactive)
REMARK    1  A    between atoms: C3_4  and  O_7 
ROOT
ATOM      1  C   UNL d   1       1.189  -1.446   2.140  0.00  0.00    -0.033 A 
ATOM      2  C1  UNL d   1       0.196  -2.136   1.442  0.00  0.00     0.039 A 
ATOM      3  C2  UNL d   1       0.547  -3.101   0.496  0.00  0.00    -0.080 A 
ATOM      4  C3  UNL d   1       1.893  -3.366   0.258  0.00  0.00     0.150 A 
ATOM      5  C4  UNL d   1       2.887  -2.686   0.953  0.00  0.00    -0.007 A 
ATOM      6  C5  UNL d   1       2.534  -1.722   1.897  0.00  0.00     0.039 A 
ENDROOT
BRANCH   4   7
ATOM      7  O   UNL d   1       2.284  -4.295  -0.660  0.00  0.00    -0.526 OA
ATOM      8  H5  UNL d   1       1.491  -4.664  -1.082  0.00  0.00     0.418 HD
ENDBRANCH   4   7
TORSDOF 1
ENDMDL
