MODEL 1
REMARK minimizedAffinity 2.42834306
REMARK minimizedRMSD -1
REMARK  1 active torsions:
REMARK  status: ('A' for Active; 'I' for Inactive)
REMARK    1  A    between atoms: C3_4  and  O_7 
ROOT
ATOM      1  C   UNL d   1      -3.219   2.035  -4.041  0.00  0.00    -0.033 A 
ATOM      2  C1  UNL d   1      -2.531   2.255  -5.235  0.00  0.00     0.039 A 
ATOM      3  C2  UNL d   1      -1.140   2.372  -5.231  0.00  0.00    -0.080 A 
ATOM      4  C3  UNL d   1      -0.449   2.267  -4.026  0.00  0.00     0.150 A 
ATOM      5  C4  UNL d   1      -1.128   2.044  -2.833  0.00  0.00    -0.007 A 
ATOM      6  C5  UNL d   1      -2.518   1.928  -2.839  0.00  0.00     0.039 A 
ENDROOT
BRANCH   4   7
ATOM      7  O   UNL d   1       0.908   2.379  -3.971  0.00  0.00    -0.526 OA
ATOM      8  H5  UNL d   1       1.239   2.560  -4.866  0.00  0.00     0.418 HD
ENDBRANCH   4   7
TORSDOF 1
ENDMDL
