MODEL 1
REMARK minimizedAffinity 2.64856935
REMARK minimizedRMSD -1
REMARK  1 active torsions:
REMARK  status: ('A' for Active; 'I' for Inactive)
REMARK    1  A    between atoms: C1_2  and  C2_3 
ROOT
ATOM      1  C2  UNL d   1       5.103   1.145  -3.198  0.00  0.00    -0.073 A 
ATOM      2  C3  UNL d   1       5.704   0.110  -3.925  0.00  0.00    -0.002 A 
ATOM      3  C4  UNL d   1       5.827   0.201  -5.311  0.00  0.00     0.004 A 
ATOM      4  C5  UNL d   1       5.360   1.330  -5.985  0.00  0.00    -0.004 A 
ATOM      5  C6  UNL d   1       4.768   2.380  -5.276  0.00  0.00    -0.075 A 
ATOM      6  C7  UNL d   1       4.258   3.599  -5.986  0.00  0.00     0.076 C 
ATOM      7  C8  UNL d   1       4.645   2.279  -3.883  0.00  0.00     0.001 A 
ENDROOT
BRANCH   1   8
ATOM      8  C1  UNL d   1       4.973   1.053  -1.700  0.00  0.00     0.053 C 
ATOM      9  C   UNL d   1       3.890   1.976  -1.164  0.00  0.00     0.018 C 
ENDBRANCH   1   8
TORSDOF 1
ENDMDL
