MODEL 1
REMARK minimizedAffinity 7.64312315
REMARK minimizedRMSD -1
REMARK  1 active torsions:
REMARK  status: ('A' for Active; 'I' for Inactive)
REMARK    1  A    between atoms: C1_2  and  C2_3 
ROOT
ATOM      1  C2  UNL d   1       5.062   3.613  -4.713  0.00  0.00    -0.073 A 
ATOM      2  C3  UNL d   1       3.851   3.683  -5.410  0.00  0.00    -0.002 A 
ATOM      3  C4  UNL d   1       3.301   2.537  -5.986  0.00  0.00     0.004 A 
ATOM      4  C5  UNL d   1       3.952   1.310  -5.866  0.00  0.00    -0.004 A 
ATOM      5  C6  UNL d   1       5.158   1.217  -5.163  0.00  0.00    -0.075 A 
ATOM      6  C7  UNL d   1       5.872  -0.096  -5.026  0.00  0.00     0.076 C 
ATOM      7  C8  UNL d   1       5.705   2.373  -4.589  0.00  0.00     0.001 A 
ENDROOT
BRANCH   1   8
ATOM      8  C1  UNL d   1       5.656   4.847  -4.084  0.00  0.00     0.053 C 
ATOM      9  C   UNL d   1       4.647   5.980  -3.989  0.00  0.00     0.018 C 
ENDBRANCH   1   8
TORSDOF 1
ENDMDL
