MODEL 1
REMARK minimizedAffinity 3.98090148
REMARK minimizedRMSD -1
REMARK  1 active torsions:
REMARK  status: ('A' for Active; 'I' for Inactive)
REMARK    1  A    between atoms: C1_2  and  C2_3 
ROOT
ATOM      1  C2  UNL d   1       3.570   2.904   1.243  0.00  0.00    -0.073 A 
ATOM      2  C3  UNL d   1       2.854   3.735   0.374  0.00  0.00    -0.002 A 
ATOM      3  C4  UNL d   1       1.617   3.330  -0.129  0.00  0.00     0.004 A 
ATOM      4  C5  UNL d   1       1.081   2.095   0.236  0.00  0.00    -0.004 A 
ATOM      5  C6  UNL d   1       1.776   1.256   1.113  0.00  0.00    -0.075 A 
ATOM      6  C7  UNL d   1       1.215  -0.077   1.513  0.00  0.00     0.076 C 
ATOM      7  C8  UNL d   1       3.019   1.668   1.611  0.00  0.00     0.001 A 
ENDROOT
BRANCH   1   8
ATOM      8  C1  UNL d   1       4.904   3.340   1.793  0.00  0.00     0.053 C 
ATOM      9  C   UNL d   1       4.760   4.093   3.106  0.00  0.00     0.018 C 
ENDBRANCH   1   8
TORSDOF 1
ENDMDL
