MODEL 1
REMARK minimizedAffinity -0.148384795
REMARK minimizedRMSD -1
REMARK  1 active torsions:
REMARK  status: ('A' for Active; 'I' for Inactive)
REMARK    1  A    between atoms: C1_2  and  C2_3 
ROOT
ATOM      1  C2  UNL d   1      -1.605  -4.259   0.256  0.00  0.00    -0.073 A 
ATOM      2  C3  UNL d   1      -1.043  -5.529   0.424  0.00  0.00    -0.002 A 
ATOM      3  C4  UNL d   1      -0.732  -5.999   1.700  0.00  0.00     0.004 A 
ATOM      4  C5  UNL d   1      -0.985  -5.209   2.821  0.00  0.00    -0.004 A 
ATOM      5  C6  UNL d   1      -1.557  -3.941   2.675  0.00  0.00    -0.075 A 
ATOM      6  C7  UNL d   1      -1.834  -3.077   3.870  0.00  0.00     0.076 C 
ATOM      7  C8  UNL d   1      -1.865  -3.475   1.389  0.00  0.00     0.001 A 
ENDROOT
BRANCH   1   8
ATOM      8  C1  UNL d   1      -1.949  -3.749  -1.120  0.00  0.00     0.053 C 
ATOM      9  C   UNL d   1      -0.709  -3.372  -1.914  0.00  0.00     0.018 C 
ENDBRANCH   1   8
TORSDOF 1
ENDMDL
