MODEL 1
REMARK minimizedAffinity 5.59139585
REMARK minimizedRMSD -1
REMARK  1 active torsions:
REMARK  status: ('A' for Active; 'I' for Inactive)
REMARK    1  A    between atoms: C1_2  and  C2_3 
ROOT
ATOM      1  C2  UNL d   1      -1.378  -2.434   1.129  0.00  0.00    -0.073 A 
ATOM      2  C3  UNL d   1      -0.397  -1.672   0.484  0.00  0.00    -0.002 A 
ATOM      3  C4  UNL d   1      -0.009  -1.981  -0.820  0.00  0.00     0.004 A 
ATOM      4  C5  UNL d   1      -0.603  -3.048  -1.495  0.00  0.00    -0.004 A 
ATOM      5  C6  UNL d   1      -1.594  -3.813  -0.872  0.00  0.00    -0.075 A 
ATOM      6  C7  UNL d   1      -2.240  -4.965  -1.583  0.00  0.00     0.076 C 
ATOM      7  C8  UNL d   1      -1.975  -3.499   0.439  0.00  0.00     0.001 A 
ENDROOT
BRANCH   1   8
ATOM      8  C1  UNL d   1      -1.804  -2.100   2.535  0.00  0.00     0.053 C 
ATOM      9  C   UNL d   1      -2.082  -3.349   3.358  0.00  0.00     0.018 C 
ENDBRANCH   1   8
TORSDOF 1
ENDMDL
