MODEL 1
REMARK minimizedAffinity -1.62859118
REMARK minimizedRMSD -1
REMARK  1 active torsions:
REMARK  status: ('A' for Active; 'I' for Inactive)
REMARK    1  A    between atoms: C1_2  and  C2_3 
ROOT
ATOM      1  C2  UNL d   1       4.139   2.624   2.847  0.00  0.00    -0.073 A 
ATOM      2  C3  UNL d   1       3.193   1.886   2.128  0.00  0.00    -0.002 A 
ATOM      3  C4  UNL d   1       2.546   2.451   1.028  0.00  0.00     0.004 A 
ATOM      4  C5  UNL d   1       2.842   3.755   0.632  0.00  0.00    -0.004 A 
ATOM      5  C6  UNL d   1       3.794   4.505   1.331  0.00  0.00    -0.075 A 
ATOM      6  C7  UNL d   1       4.123   5.910   0.920  0.00  0.00     0.076 C 
ATOM      7  C8  UNL d   1       4.438   3.931   2.436  0.00  0.00     0.001 A 
ENDROOT
BRANCH   1   8
ATOM      8  C1  UNL d   1       4.845   2.016   4.031  0.00  0.00     0.053 C 
ATOM      9  C   UNL d   1       5.016   3.013   5.167  0.00  0.00     0.018 C 
ENDBRANCH   1   8
TORSDOF 1
ENDMDL
