MODEL 1
REMARK minimizedAffinity -0.010836415
REMARK minimizedRMSD -1
REMARK  1 active torsions:
REMARK  status: ('A' for Active; 'I' for Inactive)
REMARK    1  A    between atoms: C1_2  and  C2_3 
ROOT
ATOM      1  C2  UNL d   1       3.962   3.228   2.215  0.00  0.00    -0.073 A 
ATOM      2  C3  UNL d   1       4.125   3.809   0.953  0.00  0.00    -0.002 A 
ATOM      3  C4  UNL d   1       3.237   3.510  -0.081  0.00  0.00     0.004 A 
ATOM      4  C5  UNL d   1       2.173   2.635   0.138  0.00  0.00    -0.004 A 
ATOM      5  C6  UNL d   1       1.986   2.053   1.396  0.00  0.00    -0.075 A 
ATOM      6  C7  UNL d   1       0.849   1.108   1.648  0.00  0.00     0.076 C 
ATOM      7  C8  UNL d   1       2.884   2.356   2.429  0.00  0.00     0.001 A 
ENDROOT
BRANCH   1   8
ATOM      8  C1  UNL d   1       4.915   3.552   3.336  0.00  0.00     0.053 C 
ATOM      9  C   UNL d   1       4.507   2.888   4.642  0.00  0.00     0.018 C 
ENDBRANCH   1   8
TORSDOF 1
ENDMDL
