MODEL 1
REMARK minimizedAffinity 5.91698122
REMARK minimizedRMSD -1
REMARK  1 active torsions:
REMARK  status: ('A' for Active; 'I' for Inactive)
REMARK    1  A    between atoms: C1_2  and  C2_3 
ROOT
ATOM      1  C2  UNL d   1       5.190   1.248  -5.162  0.00  0.00    -0.073 A 
ATOM      2  C3  UNL d   1       3.794   1.255  -5.260  0.00  0.00    -0.002 A 
ATOM      3  C4  UNL d   1       3.116   2.430  -5.588  0.00  0.00     0.004 A 
ATOM      4  C5  UNL d   1       3.825   3.606  -5.828  0.00  0.00    -0.004 A 
ATOM      5  C6  UNL d   1       5.222   3.617  -5.746  0.00  0.00    -0.075 A 
ATOM      6  C7  UNL d   1       6.000   4.875  -5.999  0.00  0.00     0.076 C 
ATOM      7  C8  UNL d   1       5.895   2.434  -5.413  0.00  0.00     0.001 A 
ENDROOT
BRANCH   1   8
ATOM      8  C1  UNL d   1       5.926  -0.019  -4.814  0.00  0.00     0.053 C 
ATOM      9  C   UNL d   1       5.485  -0.586  -3.474  0.00  0.00     0.018 C 
ENDBRANCH   1   8
TORSDOF 1
ENDMDL
