MODEL 1
REMARK minimizedAffinity 0.432752728
REMARK minimizedRMSD -1
REMARK  1 active torsions:
REMARK  status: ('A' for Active; 'I' for Inactive)
REMARK    1  A    between atoms: C1_2  and  C2_3 
ROOT
ATOM      1  C2  UNL d   1       2.234   2.532   1.153  0.00  0.00    -0.073 A 
ATOM      2  C3  UNL d   1       2.945   3.484   0.414  0.00  0.00    -0.002 A 
ATOM      3  C4  UNL d   1       4.087   4.082   0.948  0.00  0.00     0.004 A 
ATOM      4  C5  UNL d   1       4.532   3.731   2.223  0.00  0.00    -0.004 A 
ATOM      5  C6  UNL d   1       3.841   2.774   2.972  0.00  0.00    -0.075 A 
ATOM      6  C7  UNL d   1       4.306   2.386   4.345  0.00  0.00     0.076 C 
ATOM      7  C8  UNL d   1       2.694   2.179   2.429  0.00  0.00     0.001 A 
ENDROOT
BRANCH   1   8
ATOM      8  C1  UNL d   1       1.004   1.879   0.577  0.00  0.00     0.053 C 
ATOM      9  C   UNL d   1      -0.064   1.644   1.633  0.00  0.00     0.018 C 
ENDBRANCH   1   8
TORSDOF 1
ENDMDL
