MODEL 1
REMARK minimizedAffinity 2.9715724
REMARK minimizedRMSD -1
REMARK  1 active torsions:
REMARK  status: ('A' for Active; 'I' for Inactive)
REMARK    1  A    between atoms: C1_2  and  C2_3 
ROOT
ATOM      1  C2  UNL d   1       4.186   3.284   1.647  0.00  0.00    -0.073 A 
ATOM      2  C3  UNL d   1       3.867   4.024   0.503  0.00  0.00    -0.002 A 
ATOM      3  C4  UNL d   1       2.695   3.755  -0.206  0.00  0.00     0.004 A 
ATOM      4  C5  UNL d   1       1.829   2.749   0.225  0.00  0.00    -0.004 A 
ATOM      5  C6  UNL d   1       2.126   2.007   1.372  0.00  0.00    -0.075 A 
ATOM      6  C7  UNL d   1       1.206   0.921   1.847  0.00  0.00     0.076 C 
ATOM      7  C8  UNL d   1       3.305   2.281   2.077  0.00  0.00     0.001 A 
ENDROOT
BRANCH   1   8
ATOM      8  C1  UNL d   1       5.447   3.575   2.420  0.00  0.00     0.053 C 
ATOM      9  C   UNL d   1       5.470   2.863   3.763  0.00  0.00     0.018 C 
ENDBRANCH   1   8
TORSDOF 1
ENDMDL
