MODEL 1
REMARK minimizedAffinity 4.51410866
REMARK minimizedRMSD -1
REMARK  1 active torsions:
REMARK  status: ('A' for Active; 'I' for Inactive)
REMARK    1  A    between atoms: C1_2  and  C2_3 
ROOT
ATOM      1  C2  UNL d   1       2.515   2.661   1.218  0.00  0.00    -0.073 A 
ATOM      2  C3  UNL d   1       3.108   3.656   0.432  0.00  0.00    -0.002 A 
ATOM      3  C4  UNL d   1       4.291   4.270   0.846  0.00  0.00     0.004 A 
ATOM      4  C5  UNL d   1       4.896   3.890   2.044  0.00  0.00    -0.004 A 
ATOM      5  C6  UNL d   1       4.326   2.890   2.837  0.00  0.00    -0.075 A 
ATOM      6  C7  UNL d   1       4.964   2.472   4.129  0.00  0.00     0.076 C 
ATOM      7  C8  UNL d   1       3.136   2.280   2.416  0.00  0.00     0.001 A 
ENDROOT
BRANCH   1   8
ATOM      8  C1  UNL d   1       1.241   1.992   0.772  0.00  0.00     0.053 C 
ATOM      9  C   UNL d   1       0.314   2.955   0.047  0.00  0.00     0.018 C 
ENDBRANCH   1   8
TORSDOF 1
ENDMDL
