MODEL 1
REMARK minimizedAffinity 0.205551282
REMARK minimizedRMSD -1
REMARK  1 active torsions:
REMARK  status: ('A' for Active; 'I' for Inactive)
REMARK    1  A    between atoms: C1_2  and  C2_3 
ROOT
ATOM      1  C2  UNL d   1       3.648   2.782   1.800  0.00  0.00    -0.073 A 
ATOM      2  C3  UNL d   1       3.498   3.651   0.713  0.00  0.00    -0.002 A 
ATOM      3  C4  UNL d   1       2.283   3.722   0.030  0.00  0.00     0.004 A 
ATOM      4  C5  UNL d   1       1.206   2.932   0.430  0.00  0.00    -0.004 A 
ATOM      5  C6  UNL d   1       1.332   2.066   1.521  0.00  0.00    -0.075 A 
ATOM      6  C7  UNL d   1       0.184   1.208   1.963  0.00  0.00     0.076 C 
ATOM      7  C8  UNL d   1       2.556   1.999   2.200  0.00  0.00     0.001 A 
ENDROOT
BRANCH   1   8
ATOM      8  C1  UNL d   1       4.956   2.707   2.544  0.00  0.00     0.053 C 
ATOM      9  C   UNL d   1       5.461   4.083   2.949  0.00  0.00     0.018 C 
ENDBRANCH   1   8
TORSDOF 1
ENDMDL
