MODEL 1
REMARK minimizedAffinity 9.68667126
REMARK minimizedRMSD -1
REMARK  0 active torsions:
REMARK  status: ('A' for Active; 'I' for Inactive)
ROOT
ATOM      1  C   UNL d   1      -1.355   0.282   2.021  0.00  0.00     0.078 C 
ATOM      2  C1  UNL d   1      -0.038  -0.210   2.543  0.00  0.00    -0.077 A 
ATOM      3  C2  UNL d   1       0.118  -1.532   2.975  0.00  0.00    -0.001 A 
ATOM      4  C3  UNL d   1       1.347  -1.973   3.468  0.00  0.00     0.003 A 
ATOM      5  C4  UNL d   1       2.430  -1.098   3.533  0.00  0.00    -0.005 A 
ATOM      6  C5  UNL d   1       2.283   0.220   3.107  0.00  0.00     0.003 A 
ATOM      7  C6  UNL d   1       1.055   0.663   2.614  0.00  0.00    -0.001 A 
ENDROOT
TORSDOF 0
ENDMDL
