MODEL 1
REMARK minimizedAffinity 7.45998859
REMARK minimizedRMSD -1
REMARK  0 active torsions:
REMARK  status: ('A' for Active; 'I' for Inactive)
ROOT
ATOM      1  C   UNL d   1       2.816  -0.486  -4.548  0.00  0.00     0.078 C 
ATOM      2  C1  UNL d   1       1.410  -0.972  -4.736  0.00  0.00    -0.077 A 
ATOM      3  C2  UNL d   1       0.320  -0.215  -4.292  0.00  0.00    -0.001 A 
ATOM      4  C3  UNL d   1      -0.983  -0.684  -4.466  0.00  0.00     0.003 A 
ATOM      5  C4  UNL d   1      -1.208  -1.914  -5.082  0.00  0.00    -0.005 A 
ATOM      6  C5  UNL d   1      -0.128  -2.676  -5.524  0.00  0.00     0.003 A 
ATOM      7  C6  UNL d   1       1.175  -2.208  -5.352  0.00  0.00    -0.001 A 
ENDROOT
TORSDOF 0
ENDMDL
