MODEL 1
REMARK minimizedAffinity 6.8816247
REMARK minimizedRMSD -1
REMARK  0 active torsions:
REMARK  status: ('A' for Active; 'I' for Inactive)
ROOT
ATOM      1  C   UNL d   1       3.755   6.000   1.815  0.00  0.00     0.078 C 
ATOM      2  C1  UNL d   1       4.305   4.644   2.142  0.00  0.00    -0.077 A 
ATOM      3  C2  UNL d   1       4.782   4.349   3.425  0.00  0.00    -0.001 A 
ATOM      4  C3  UNL d   1       5.300   3.085   3.712  0.00  0.00     0.003 A 
ATOM      5  C4  UNL d   1       5.347   2.107   2.721  0.00  0.00    -0.005 A 
ATOM      6  C5  UNL d   1       4.877   2.391   1.441  0.00  0.00     0.003 A 
ATOM      7  C6  UNL d   1       4.358   3.654   1.152  0.00  0.00    -0.001 A 
ENDROOT
TORSDOF 0
ENDMDL
