MODEL 1
REMARK minimizedAffinity 7.56660223
REMARK minimizedRMSD -1
REMARK  0 active torsions:
REMARK  status: ('A' for Active; 'I' for Inactive)
ROOT
ATOM      1  C   UNL d   1       5.998   4.535  -5.893  0.00  0.00     0.078 C 
ATOM      2  C1  UNL d   1       5.363   3.245  -5.468  0.00  0.00    -0.077 A 
ATOM      3  C2  UNL d   1       5.999   2.394  -4.555  0.00  0.00    -0.001 A 
ATOM      4  C3  UNL d   1       5.400   1.192  -4.176  0.00  0.00     0.003 A 
ATOM      5  C4  UNL d   1       4.163   0.829  -4.704  0.00  0.00    -0.005 A 
ATOM      6  C5  UNL d   1       3.523   1.668  -5.615  0.00  0.00     0.003 A 
ATOM      7  C6  UNL d   1       4.121   2.871  -5.995  0.00  0.00    -0.001 A 
ENDROOT
TORSDOF 0
ENDMDL
