MODEL 1
REMARK minimizedAffinity 7.2444768
REMARK minimizedRMSD -1
REMARK  0 active torsions:
REMARK  status: ('A' for Active; 'I' for Inactive)
ROOT
ATOM      1  C   UNL d   1      -1.524  -4.390  -5.987  0.00  0.00     0.078 C 
ATOM      2  C1  UNL d   1      -1.071  -3.103  -5.365  0.00  0.00    -0.077 A 
ATOM      3  C2  UNL d   1      -0.123  -2.290  -5.999  0.00  0.00    -0.001 A 
ATOM      4  C3  UNL d   1       0.297  -1.100  -5.404  0.00  0.00     0.003 A 
ATOM      5  C4  UNL d   1      -0.225  -0.712  -4.171  0.00  0.00    -0.005 A 
ATOM      6  C5  UNL d   1      -1.167  -1.515  -3.532  0.00  0.00     0.003 A 
ATOM      7  C6  UNL d   1      -1.588  -2.706  -4.125  0.00  0.00    -0.001 A 
ENDROOT
TORSDOF 0
ENDMDL
