MODEL 1
REMARK minimizedAffinity 10.3126535
REMARK minimizedRMSD -1
REMARK  0 active torsions:
REMARK  status: ('A' for Active; 'I' for Inactive)
ROOT
ATOM      1  C   UNL d   1      -5.977   5.979  -1.518  0.00  0.00     0.078 C 
ATOM      2  C1  UNL d   1      -5.990   4.579  -0.982  0.00  0.00    -0.077 A 
ATOM      3  C2  UNL d   1      -5.996   4.334   0.396  0.00  0.00    -0.001 A 
ATOM      4  C3  UNL d   1      -5.999   3.025   0.881  0.00  0.00     0.003 A 
ATOM      5  C4  UNL d   1      -5.995   1.951  -0.006  0.00  0.00    -0.005 A 
ATOM      6  C5  UNL d   1      -5.988   2.184  -1.379  0.00  0.00     0.003 A 
ATOM      7  C6  UNL d   1      -5.985   3.492  -1.866  0.00  0.00    -0.001 A 
ENDROOT
TORSDOF 0
ENDMDL
