MODEL 1
REMARK minimizedAffinity 6.04854012
REMARK minimizedRMSD -1
REMARK  0 active torsions:
REMARK  status: ('A' for Active; 'I' for Inactive)
ROOT
ATOM      1  C   UNL d   1      -0.748  -5.208   6.000  0.00  0.00     0.078 C 
ATOM      2  C1  UNL d   1      -0.010  -4.387   4.986  0.00  0.00    -0.077 A 
ATOM      3  C2  UNL d   1      -0.693  -3.517   4.127  0.00  0.00    -0.001 A 
ATOM      4  C3  UNL d   1       0.006  -2.766   3.181  0.00  0.00     0.003 A 
ATOM      5  C4  UNL d   1       1.392  -2.877   3.085  0.00  0.00    -0.005 A 
ATOM      6  C5  UNL d   1       2.080  -3.741   3.934  0.00  0.00     0.003 A 
ATOM      7  C6  UNL d   1       1.382  -4.493   4.880  0.00  0.00    -0.001 A 
ENDROOT
TORSDOF 0
ENDMDL
