MODEL 1
REMARK minimizedAffinity 8.30639172
REMARK minimizedRMSD -1
REMARK  0 active torsions:
REMARK  status: ('A' for Active; 'I' for Inactive)
ROOT
ATOM      1  C   UNL d   1      -0.499  -0.368   2.220  0.00  0.00     0.078 C 
ATOM      2  C1  UNL d   1       0.662  -0.852   3.038  0.00  0.00    -0.077 A 
ATOM      3  C2  UNL d   1       0.709  -2.168   3.514  0.00  0.00    -0.001 A 
ATOM      4  C3  UNL d   1       1.791  -2.602   4.282  0.00  0.00     0.003 A 
ATOM      5  C4  UNL d   1       2.832  -1.726   4.582  0.00  0.00    -0.005 A 
ATOM      6  C5  UNL d   1       2.793  -0.414   4.115  0.00  0.00     0.003 A 
ATOM      7  C6  UNL d   1       1.712   0.022   3.346  0.00  0.00    -0.001 A 
ENDROOT
TORSDOF 0
ENDMDL
