MODEL 1
REMARK minimizedAffinity -4.34277201
REMARK minimizedRMSD -1
REMARK  1 active torsions:
REMARK  status: ('A' for Active; 'I' for Inactive)
REMARK    1  A    between atoms: C3_4  and  O_7 
ROOT
ATOM      1  C   UNL d   1      -2.471  -1.684  -0.183  0.00  0.00    -0.033 A 
ATOM      2  C1  UNL d   1      -2.222  -0.624  -1.057  0.00  0.00     0.039 A 
ATOM      3  C2  UNL d   1      -1.031   0.098  -0.959  0.00  0.00    -0.080 A 
ATOM      4  C3  UNL d   1      -0.099  -0.249   0.014  0.00  0.00     0.150 A 
ATOM      5  C4  UNL d   1      -0.339  -1.307   0.885  0.00  0.00    -0.007 A 
ATOM      6  C5  UNL d   1      -1.529  -2.027   0.787  0.00  0.00     0.039 A 
ENDROOT
BRANCH   4   7
ATOM      7  O   UNL d   1       1.075   0.430   0.151  0.00  0.00    -0.526 OA
ATOM      8  H5  UNL d   1       1.091   1.152  -0.499  0.00  0.00     0.418 HD
ENDBRANCH   4   7
TORSDOF 1
ENDMDL
