MODEL 1
REMARK minimizedAffinity -4.59828949
REMARK minimizedRMSD -1
REMARK  1 active torsions:
REMARK  status: ('A' for Active; 'I' for Inactive)
REMARK    1  A    between atoms: C3_4  and  O_7 
ROOT
ATOM      1  C   UNL d   1      -2.521  -2.213   0.345  0.00  0.00    -0.033 A 
ATOM      2  C1  UNL d   1      -1.565  -2.499   1.322  0.00  0.00     0.039 A 
ATOM      3  C2  UNL d   1      -0.413  -1.716   1.424  0.00  0.00    -0.080 A 
ATOM      4  C3  UNL d   1      -0.231  -0.652   0.546  0.00  0.00     0.150 A 
ATOM      5  C4  UNL d   1      -1.181  -0.359  -0.427  0.00  0.00    -0.007 A 
ATOM      6  C5  UNL d   1      -2.330  -1.142  -0.528  0.00  0.00     0.039 A 
ENDROOT
BRANCH   4   7
ATOM      7  O   UNL d   1       0.879   0.137   0.603  0.00  0.00    -0.526 OA
ATOM      8  H5  UNL d   1       1.461  -0.201   1.305  0.00  0.00     0.418 HD
ENDBRANCH   4   7
TORSDOF 1
ENDMDL
