MODEL 1
REMARK minimizedAffinity -3.21324706
REMARK minimizedRMSD -1
REMARK  1 active torsions:
REMARK  status: ('A' for Active; 'I' for Inactive)
REMARK    1  A    between atoms: C3_4  and  O_7 
ROOT
ATOM      1  C   UNL d   1      -0.817  -2.010   1.646  0.00  0.00    -0.033 A 
ATOM      2  C1  UNL d   1      -1.078  -0.827   0.953  0.00  0.00     0.039 A 
ATOM      3  C2  UNL d   1      -2.241  -0.704   0.191  0.00  0.00    -0.080 A 
ATOM      4  C3  UNL d   1      -3.135  -1.769   0.132  0.00  0.00     0.150 A 
ATOM      5  C4  UNL d   1      -2.884  -2.950   0.824  0.00  0.00    -0.007 A 
ATOM      6  C5  UNL d   1      -1.721  -3.071   1.583  0.00  0.00     0.039 A 
ENDROOT
BRANCH   4   7
ATOM      7  O   UNL d   1      -4.282  -1.697  -0.602  0.00  0.00    -0.526 OA
ATOM      8  H5  UNL d   1      -4.308  -0.835  -1.048  0.00  0.00     0.418 HD
ENDBRANCH   4   7
TORSDOF 1
ENDMDL
