MODEL 1
REMARK minimizedAffinity -2.83531451
REMARK minimizedRMSD -1
REMARK  1 active torsions:
REMARK  status: ('A' for Active; 'I' for Inactive)
REMARK    1  A    between atoms: C3_4  and  O_7 
ROOT
ATOM      1  C   UNL d   1       0.962   0.856  -0.119  0.00  0.00    -0.033 A 
ATOM      2  C1  UNL d   1       1.848  -0.027   0.502  0.00  0.00     0.039 A 
ATOM      3  C2  UNL d   1       1.374  -1.214   1.063  0.00  0.00    -0.080 A 
ATOM      4  C3  UNL d   1       0.015  -1.507   0.997  0.00  0.00     0.150 A 
ATOM      5  C4  UNL d   1      -0.873  -0.635   0.376  0.00  0.00    -0.007 A 
ATOM      6  C5  UNL d   1      -0.398   0.551  -0.183  0.00  0.00     0.039 A 
ENDROOT
BRANCH   4   7
ATOM      7  O   UNL d   1      -0.494  -2.652   1.534  0.00  0.00    -0.526 OA
ATOM      8  H5  UNL d   1       0.231  -3.144   1.955  0.00  0.00     0.418 HD
ENDBRANCH   4   7
TORSDOF 1
ENDMDL
