MODEL 1
REMARK minimizedAffinity -5.08779001
REMARK minimizedRMSD -1
REMARK  1 active torsions:
REMARK  status: ('A' for Active; 'I' for Inactive)
REMARK    1  A    between atoms: C3_4  and  O_7 
ROOT
ATOM      1  C   UNL d   1       0.015  -1.668   1.301  0.00  0.00    -0.033 A 
ATOM      2  C1  UNL d   1      -0.299  -0.485   0.629  0.00  0.00     0.039 A 
ATOM      3  C2  UNL d   1      -1.596  -0.269   0.160  0.00  0.00    -0.080 A 
ATOM      4  C3  UNL d   1      -2.569  -1.242   0.369  0.00  0.00     0.150 A 
ATOM      5  C4  UNL d   1      -2.265  -2.422   1.041  0.00  0.00    -0.007 A 
ATOM      6  C5  UNL d   1      -0.969  -2.636   1.508  0.00  0.00     0.039 A 
ENDROOT
BRANCH   4   7
ATOM      7  O   UNL d   1      -3.848  -1.078  -0.075  0.00  0.00    -0.526 OA
ATOM      8  H5  UNL d   1      -3.904  -0.230  -0.545  0.00  0.00     0.418 HD
ENDBRANCH   4   7
TORSDOF 1
ENDMDL
