MODEL 1
REMARK minimizedAffinity -3.0716424
REMARK minimizedRMSD -1
REMARK  1 active torsions:
REMARK  status: ('A' for Active; 'I' for Inactive)
REMARK    1  A    between atoms: C3_4  and  O_7 
ROOT
ATOM      1  C   UNL d   1       0.280   0.031  -0.307  0.00  0.00    -0.033 A 
ATOM      2  C1  UNL d   1      -0.547   0.808  -1.121  0.00  0.00     0.039 A 
ATOM      3  C2  UNL d   1      -1.910   0.519  -1.212  0.00  0.00    -0.080 A 
ATOM      4  C3  UNL d   1      -2.433  -0.546  -0.484  0.00  0.00     0.150 A 
ATOM      5  C4  UNL d   1      -1.616  -1.322   0.331  0.00  0.00    -0.007 A 
ATOM      6  C5  UNL d   1      -0.255  -1.033   0.420  0.00  0.00     0.039 A 
ENDROOT
BRANCH   4   7
ATOM      7  O   UNL d   1      -3.756  -0.869  -0.545  0.00  0.00    -0.526 OA
ATOM      8  H5  UNL d   1      -4.192  -0.265  -1.169  0.00  0.00     0.418 HD
ENDBRANCH   4   7
TORSDOF 1
ENDMDL
