MODEL 1
REMARK minimizedAffinity 2.05303645
REMARK minimizedRMSD -1
REMARK  1 active torsions:
REMARK  status: ('A' for Active; 'I' for Inactive)
REMARK    1  A    between atoms: C3_4  and  O_7 
ROOT
ATOM      1  C   UNL d   1      -2.047  -0.604  -1.674  0.00  0.00    -0.033 A 
ATOM      2  C1  UNL d   1      -1.172  -1.398  -0.931  0.00  0.00     0.039 A 
ATOM      3  C2  UNL d   1      -0.110  -0.810  -0.240  0.00  0.00    -0.080 A 
ATOM      4  C3  UNL d   1       0.065   0.570  -0.300  0.00  0.00     0.150 A 
ATOM      5  C4  UNL d   1      -0.806   1.367  -1.035  0.00  0.00    -0.007 A 
ATOM      6  C5  UNL d   1      -1.865   0.779  -1.725  0.00  0.00     0.039 A 
ENDROOT
BRANCH   4   7
ATOM      7  O   UNL d   1       1.089   1.187   0.354  0.00  0.00    -0.526 OA
ATOM      8  H5  UNL d   1       1.626   0.509   0.796  0.00  0.00     0.418 HD
ENDBRANCH   4   7
TORSDOF 1
ENDMDL
