MODEL 1
REMARK minimizedAffinity -3.48901677
REMARK minimizedRMSD -1
REMARK  1 active torsions:
REMARK  status: ('A' for Active; 'I' for Inactive)
REMARK    1  A    between atoms: C3_4  and  O_7 
ROOT
ATOM      1  C   UNL d   1       0.280   0.262  -0.588  0.00  0.00    -0.033 A 
ATOM      2  C1  UNL d   1      -0.475   0.281  -1.762  0.00  0.00     0.039 A 
ATOM      3  C2  UNL d   1      -1.831  -0.048  -1.727  0.00  0.00    -0.080 A 
ATOM      4  C3  UNL d   1      -2.420  -0.393  -0.513  0.00  0.00     0.150 A 
ATOM      5  C4  UNL d   1      -1.674  -0.410   0.661  0.00  0.00    -0.007 A 
ATOM      6  C5  UNL d   1      -0.319  -0.082   0.624  0.00  0.00     0.039 A 
ENDROOT
BRANCH   4   7
ATOM      7  O   UNL d   1      -3.739  -0.726  -0.430  0.00  0.00    -0.526 OA
ATOM      8  H5  UNL d   1      -4.120  -0.699  -1.323  0.00  0.00     0.418 HD
ENDBRANCH   4   7
TORSDOF 1
ENDMDL
