MODEL 1
REMARK minimizedAffinity -3.97485614
REMARK minimizedRMSD -1
REMARK  1 active torsions:
REMARK  status: ('A' for Active; 'I' for Inactive)
REMARK    1  A    between atoms: C3_4  and  O_7 
ROOT
ATOM      1  C   UNL d   1      -0.124   0.400  -0.279  0.00  0.00    -0.033 A 
ATOM      2  C1  UNL d   1      -0.676  -0.027   0.930  0.00  0.00     0.039 A 
ATOM      3  C2  UNL d   1      -1.987  -0.507   0.970  0.00  0.00    -0.080 A 
ATOM      4  C3  UNL d   1      -2.733  -0.555  -0.204  0.00  0.00     0.150 A 
ATOM      5  C4  UNL d   1      -2.187  -0.135  -1.413  0.00  0.00    -0.007 A 
ATOM      6  C5  UNL d   1      -0.879   0.345  -1.451  0.00  0.00     0.039 A 
ENDROOT
BRANCH   4   7
ATOM      7  O   UNL d   1      -4.018  -1.011  -0.214  0.00  0.00    -0.526 OA
ATOM      8  H5  UNL d   1      -4.270  -1.240   0.696  0.00  0.00     0.418 HD
ENDBRANCH   4   7
TORSDOF 1
ENDMDL
