MODEL 1
REMARK minimizedAffinity -5.00345039
REMARK minimizedRMSD -1
REMARK  1 active torsions:
REMARK  status: ('A' for Active; 'I' for Inactive)
REMARK    1  A    between atoms: C3_4  and  O_7 
ROOT
ATOM      1  C   UNL d   1       0.544  -0.863   0.822  0.00  0.00    -0.033 A 
ATOM      2  C1  UNL d   1       0.169  -0.006  -0.215  0.00  0.00     0.039 A 
ATOM      3  C2  UNL d   1      -1.164   0.057  -0.622  0.00  0.00    -0.080 A 
ATOM      4  C3  UNL d   1      -2.112  -0.739   0.015  0.00  0.00     0.150 A 
ATOM      5  C4  UNL d   1      -1.746  -1.592   1.051  0.00  0.00    -0.007 A 
ATOM      6  C5  UNL d   1      -0.414  -1.655   1.456  0.00  0.00     0.039 A 
ENDROOT
BRANCH   4   7
ATOM      7  O   UNL d   1      -3.425  -0.715  -0.351  0.00  0.00    -0.526 OA
ATOM      8  H5  UNL d   1      -3.525  -0.101  -1.098  0.00  0.00     0.418 HD
ENDBRANCH   4   7
TORSDOF 1
ENDMDL
