MODEL 1
REMARK minimizedAffinity -3.8733058
REMARK minimizedRMSD -1
REMARK  1 active torsions:
REMARK  status: ('A' for Active; 'I' for Inactive)
REMARK    1  A    between atoms: C3_4  and  O_7 
ROOT
ATOM      1  C   UNL d   1      -2.414  -0.417  -1.184  0.00  0.00    -0.033 A 
ATOM      2  C1  UNL d   1      -1.663   0.582  -1.807  0.00  0.00     0.039 A 
ATOM      3  C2  UNL d   1      -0.384   0.890  -1.342  0.00  0.00    -0.080 A 
ATOM      4  C3  UNL d   1       0.134   0.192  -0.254  0.00  0.00     0.150 A 
ATOM      5  C4  UNL d   1      -0.606  -0.807   0.370  0.00  0.00    -0.007 A 
ATOM      6  C5  UNL d   1      -1.885  -1.112  -0.096  0.00  0.00     0.039 A 
ENDROOT
BRANCH   4   7
ATOM      7  O   UNL d   1       1.376   0.460   0.239  0.00  0.00    -0.526 OA
ATOM      8  H5  UNL d   1       1.759   1.192  -0.273  0.00  0.00     0.418 HD
ENDBRANCH   4   7
TORSDOF 1
ENDMDL
