MODEL 1
REMARK minimizedAffinity -4.66859388
REMARK minimizedRMSD -1
REMARK  1 active torsions:
REMARK  status: ('A' for Active; 'I' for Inactive)
REMARK    1  A    between atoms: C3_4  and  O_7 
ROOT
ATOM      1  C   UNL d   1      -3.069  -2.488   0.553  0.00  0.00    -0.033 A 
ATOM      2  C1  UNL d   1      -1.893  -2.805   1.235  0.00  0.00     0.039 A 
ATOM      3  C2  UNL d   1      -0.788  -1.955   1.159  0.00  0.00    -0.080 A 
ATOM      4  C3  UNL d   1      -0.873  -0.791   0.399  0.00  0.00     0.150 A 
ATOM      5  C4  UNL d   1      -2.042  -0.467  -0.280  0.00  0.00    -0.007 A 
ATOM      6  C5  UNL d   1      -3.144  -1.317  -0.203  0.00  0.00     0.039 A 
ENDROOT
BRANCH   4   7
ATOM      7  O   UNL d   1       0.181   0.067   0.291  0.00  0.00    -0.526 OA
ATOM      8  H5  UNL d   1       0.930  -0.301   0.789  0.00  0.00     0.418 HD
ENDBRANCH   4   7
TORSDOF 1
ENDMDL
