MODEL 1
REMARK minimizedAffinity -5.0768199
REMARK minimizedRMSD -1
REMARK  1 active torsions:
REMARK  status: ('A' for Active; 'I' for Inactive)
REMARK    1  A    between atoms: C3_4  and  O_7 
ROOT
ATOM      1  C   UNL d   1       0.350   0.373  -0.630  0.00  0.00    -0.033 A 
ATOM      2  C1  UNL d   1      -0.005  -0.081   0.642  0.00  0.00     0.039 A 
ATOM      3  C2  UNL d   1      -1.299  -0.547   0.883  0.00  0.00    -0.080 A 
ATOM      4  C3  UNL d   1      -2.227  -0.555  -0.155  0.00  0.00     0.150 A 
ATOM      5  C4  UNL d   1      -1.879  -0.107  -1.425  0.00  0.00    -0.007 A 
ATOM      6  C5  UNL d   1      -0.587   0.359  -1.664  0.00  0.00     0.039 A 
ENDROOT
BRANCH   4   7
ATOM      7  O   UNL d   1      -3.503  -0.996   0.034  0.00  0.00    -0.526 OA
ATOM      8  H5  UNL d   1      -3.607  -1.247   0.967  0.00  0.00     0.418 HD
ENDBRANCH   4   7
TORSDOF 1
ENDMDL
