MODEL 1
REMARK minimizedAffinity 0.458946317
REMARK minimizedRMSD -1
REMARK  0 active torsions:
REMARK  status: ('A' for Active; 'I' for Inactive)
ROOT
ATOM      1  C   UNL d   1      -0.256   1.007  -2.123  0.00  0.00     0.124 A 
ATOM      2  C1  UNL d   1      -0.732   1.608  -0.966  0.00  0.00     0.062 A 
ATOM      3  C2  UNL d   1      -0.417   1.075   0.281  0.00  0.00     0.162 A 
ATOM      4  C3  UNL d   1       0.380  -0.066   0.377  0.00  0.00    -0.034 A 
ATOM      5  C4  UNL d   1       0.854  -0.665  -0.791  0.00  0.00     0.162 A 
ATOM      6  C5  UNL d   1       0.536  -0.129  -2.035  0.00  0.00     0.062 A 
ATOM      7  F   UNL d   1       0.997  -0.711  -3.151  0.00  0.00    -0.097 F 
ATOM      8  F1  UNL d   1       1.623  -1.763  -0.735  0.00  0.00    -0.096 F 
ATOM      9  I   UNL d   1       0.854  -0.867   2.239  0.00  0.00    -0.060 I 
ATOM     10  F2  UNL d   1      -0.891   1.676   1.382  0.00  0.00    -0.096 F 
ATOM     11  F3  UNL d   1      -1.499   2.705  -1.048  0.00  0.00    -0.097 F 
ATOM     12  F4  UNL d   1      -0.562   1.522  -3.321  0.00  0.00    -0.092 F 
ENDROOT
TORSDOF 0
ENDMDL
