MODEL 1
REMARK minimizedAffinity -0.713205397
REMARK minimizedRMSD -1
REMARK  0 active torsions:
REMARK  status: ('A' for Active; 'I' for Inactive)
ROOT
ATOM      1  C   UNL d   1       1.075  -0.868   1.981  0.00  0.00     0.124 A 
ATOM      2  C1  UNL d   1      -0.312  -0.839   2.035  0.00  0.00     0.062 A 
ATOM      3  C2  UNL d   1      -1.038  -0.212   1.027  0.00  0.00     0.162 A 
ATOM      4  C3  UNL d   1      -0.380   0.391  -0.045  0.00  0.00    -0.034 A 
ATOM      5  C4  UNL d   1       1.015   0.358  -0.092  0.00  0.00     0.162 A 
ATOM      6  C5  UNL d   1       1.737  -0.270   0.918  0.00  0.00     0.062 A 
ATOM      7  F   UNL d   1       3.076  -0.298   0.864  0.00  0.00    -0.097 F 
ATOM      8  F1  UNL d   1       1.680   0.927  -1.108  0.00  0.00    -0.096 F 
ATOM      9  I   UNL d   1      -1.462   1.329  -1.554  0.00  0.00    -0.060 I 
ATOM     10  F2  UNL d   1      -2.377  -0.198   1.105  0.00  0.00    -0.096 F 
ATOM     11  F3  UNL d   1      -0.954  -1.415   3.062  0.00  0.00    -0.097 F 
ATOM     12  F4  UNL d   1       1.771  -1.472   2.953  0.00  0.00    -0.092 F 
ENDROOT
TORSDOF 0
ENDMDL
