MODEL 1
REMARK minimizedAffinity -5.78591108
REMARK minimizedRMSD -1
REMARK  0 active torsions:
REMARK  status: ('A' for Active; 'I' for Inactive)
ROOT
ATOM      1  C   UNL d   1      -0.864  -0.178   1.190  0.00  0.00     0.124 A 
ATOM      2  C1  UNL d   1      -0.047  -0.729   2.167  0.00  0.00     0.062 A 
ATOM      3  C2  UNL d   1       1.173  -1.302   1.819  0.00  0.00     0.162 A 
ATOM      4  C3  UNL d   1       1.584  -1.326   0.486  0.00  0.00    -0.034 A 
ATOM      5  C4  UNL d   1       0.756  -0.770  -0.491  0.00  0.00     0.162 A 
ATOM      6  C5  UNL d   1      -0.462  -0.199  -0.138  0.00  0.00     0.062 A 
ATOM      7  F   UNL d   1      -1.250   0.333  -1.083  0.00  0.00    -0.097 F 
ATOM      8  F1  UNL d   1       1.121  -0.776  -1.782  0.00  0.00    -0.096 F 
ATOM      9  I   UNL d   1       3.407  -2.181  -0.039  0.00  0.00    -0.060 I 
ATOM     10  F2  UNL d   1       1.943  -1.827   2.784  0.00  0.00    -0.096 F 
ATOM     11  F3  UNL d   1      -0.433  -0.711   3.451  0.00  0.00    -0.097 F 
ATOM     12  F4  UNL d   1      -2.037   0.371   1.528  0.00  0.00    -0.092 F 
ENDROOT
TORSDOF 0
ENDMDL
