MODEL 1
REMARK minimizedAffinity -3.36973071
REMARK minimizedRMSD -1
REMARK  0 active torsions:
REMARK  status: ('A' for Active; 'I' for Inactive)
ROOT
ATOM      1  C   UNL d   1       0.879  -1.501   1.666  0.00  0.00     0.124 A 
ATOM      2  C1  UNL d   1       1.392  -1.526   0.376  0.00  0.00     0.062 A 
ATOM      3  C2  UNL d   1       0.812  -0.749  -0.622  0.00  0.00     0.162 A 
ATOM      4  C3  UNL d   1      -0.287   0.061  -0.335  0.00  0.00    -0.034 A 
ATOM      5  C4  UNL d   1      -0.797   0.080   0.964  0.00  0.00     0.162 A 
ATOM      6  C5  UNL d   1      -0.214  -0.698   1.959  0.00  0.00     0.062 A 
ATOM      7  F   UNL d   1      -0.710  -0.672   3.204  0.00  0.00    -0.097 F 
ATOM      8  F1  UNL d   1      -1.852   0.848   1.274  0.00  0.00    -0.096 F 
ATOM      9  I   UNL d   1      -1.156   1.224  -1.826  0.00  0.00    -0.060 I 
ATOM     10  F2  UNL d   1       1.328  -0.793  -1.860  0.00  0.00    -0.096 F 
ATOM     11  F3  UNL d   1       2.448  -2.301   0.091  0.00  0.00    -0.097 F 
ATOM     12  F4  UNL d   1       1.439  -2.250   2.625  0.00  0.00    -0.092 F 
ENDROOT
TORSDOF 0
ENDMDL
