MODEL 1
REMARK minimizedAffinity -2.83844829
REMARK minimizedRMSD -1
REMARK  0 active torsions:
REMARK  status: ('A' for Active; 'I' for Inactive)
ROOT
ATOM      1  C   UNL d   1       1.340  -1.876   1.062  0.00  0.00     0.124 A 
ATOM      2  C1  UNL d   1       1.726  -1.661  -0.254  0.00  0.00     0.062 A 
ATOM      3  C2  UNL d   1       0.993  -0.801  -1.067  0.00  0.00     0.162 A 
ATOM      4  C3  UNL d   1      -0.133  -0.148  -0.566  0.00  0.00    -0.034 A 
ATOM      5  C4  UNL d   1      -0.516  -0.371   0.758  0.00  0.00     0.162 A 
ATOM      6  C5  UNL d   1       0.220  -1.231   1.567  0.00  0.00     0.062 A 
ATOM      7  F   UNL d   1      -0.155  -1.438   2.838  0.00  0.00    -0.097 F 
ATOM      8  F1  UNL d   1      -1.594   0.240   1.272  0.00  0.00    -0.096 F 
ATOM      9  I   UNL d   1      -1.232   1.138  -1.778  0.00  0.00    -0.060 I 
ATOM     10  F2  UNL d   1       1.389  -0.612  -2.334  0.00  0.00    -0.096 F 
ATOM     11  F3  UNL d   1       2.808  -2.283  -0.744  0.00  0.00    -0.097 F 
ATOM     12  F4  UNL d   1       2.047  -2.705   1.841  0.00  0.00    -0.092 F 
ENDROOT
TORSDOF 0
ENDMDL
