MODEL 1
REMARK minimizedAffinity -0.224945188
REMARK minimizedRMSD -1
REMARK  0 active torsions:
REMARK  status: ('A' for Active; 'I' for Inactive)
ROOT
ATOM      1  C   UNL d   1       1.017  -1.622   1.422  0.00  0.00     0.124 A 
ATOM      2  C1  UNL d   1      -0.058  -0.831   1.803  0.00  0.00     0.062 A 
ATOM      3  C2  UNL d   1      -0.675   0.005   0.876  0.00  0.00     0.162 A 
ATOM      4  C3  UNL d   1      -0.218   0.053  -0.441  0.00  0.00    -0.034 A 
ATOM      5  C4  UNL d   1       0.865  -0.744  -0.816  0.00  0.00     0.162 A 
ATOM      6  C5  UNL d   1       1.477  -1.578   0.114  0.00  0.00     0.062 A 
ATOM      7  F   UNL d   1       2.516  -2.342  -0.255  0.00  0.00    -0.097 F 
ATOM      8  F1  UNL d   1       1.329  -0.722  -2.074  0.00  0.00    -0.096 F 
ATOM      9  I   UNL d   1      -1.137   1.302  -1.830  0.00  0.00    -0.060 I 
ATOM     10  F2  UNL d   1      -1.712   0.758   1.271  0.00  0.00    -0.096 F 
ATOM     11  F3  UNL d   1      -0.504  -0.871   3.067  0.00  0.00    -0.097 F 
ATOM     12  F4  UNL d   1       1.609  -2.424   2.316  0.00  0.00    -0.092 F 
ENDROOT
TORSDOF 0
ENDMDL
