MODEL 1
REMARK minimizedAffinity -1.38791871
REMARK minimizedRMSD -1
REMARK  0 active torsions:
REMARK  status: ('A' for Active; 'I' for Inactive)
ROOT
ATOM      1  C   UNL d   1      -1.084   0.286   0.260  0.00  0.00     0.124 A 
ATOM      2  C1  UNL d   1      -1.188  -0.268   1.528  0.00  0.00     0.062 A 
ATOM      3  C2  UNL d   1      -0.282  -1.239   1.945  0.00  0.00     0.162 A 
ATOM      4  C3  UNL d   1       0.737  -1.662   1.092  0.00  0.00    -0.034 A 
ATOM      5  C4  UNL d   1       0.835  -1.102  -0.183  0.00  0.00     0.162 A 
ATOM      6  C5  UNL d   1      -0.073  -0.132  -0.595  0.00  0.00     0.062 A 
ATOM      7  F   UNL d   1       0.028   0.402  -1.821  0.00  0.00    -0.097 F 
ATOM      8  F1  UNL d   1       1.802  -1.487  -1.029  0.00  0.00    -0.096 F 
ATOM      9  I   UNL d   1       2.094  -3.114   1.711  0.00  0.00    -0.060 I 
ATOM     10  F2  UNL d   1      -0.406  -1.756   3.176  0.00  0.00    -0.096 F 
ATOM     11  F3  UNL d   1      -2.164   0.134   2.356  0.00  0.00    -0.097 F 
ATOM     12  F4  UNL d   1      -1.958   1.219  -0.139  0.00  0.00    -0.092 F 
ENDROOT
TORSDOF 0
ENDMDL
