MODEL 1
REMARK minimizedAffinity 4.14913559
REMARK minimizedRMSD -1
REMARK  0 active torsions:
REMARK  status: ('A' for Active; 'I' for Inactive)
ROOT
ATOM      1  C   UNL d   1      -0.203   2.823  -2.443  0.00  0.00     0.124 A 
ATOM      2  C1  UNL d   1      -1.417   2.218  -2.148  0.00  0.00     0.062 A 
ATOM      3  C2  UNL d   1      -1.487   1.227  -1.174  0.00  0.00     0.162 A 
ATOM      4  C3  UNL d   1      -0.339   0.833  -0.487  0.00  0.00    -0.034 A 
ATOM      5  C4  UNL d   1       0.879   1.445  -0.790  0.00  0.00     0.162 A 
ATOM      6  C5  UNL d   1       0.944   2.436  -1.764  0.00  0.00     0.062 A 
ATOM      7  F   UNL d   1       2.118   3.018  -2.048  0.00  0.00    -0.097 F 
ATOM      8  F1  UNL d   1       2.003   1.091  -0.148  0.00  0.00    -0.096 F 
ATOM      9  I   UNL d   1      -0.439  -0.650   0.971  0.00  0.00    -0.060 I 
ATOM     10  F2  UNL d   1      -2.673   0.660  -0.909  0.00  0.00    -0.096 F 
ATOM     11  F3  UNL d   1      -2.526   2.590  -2.803  0.00  0.00    -0.097 F 
ATOM     12  F4  UNL d   1      -0.139   3.776  -3.381  0.00  0.00    -0.092 F 
ENDROOT
TORSDOF 0
ENDMDL
