MODEL 1
REMARK minimizedAffinity -1.44997764
REMARK minimizedRMSD -1
REMARK  0 active torsions:
REMARK  status: ('A' for Active; 'I' for Inactive)
ROOT
ATOM      1  C   UNL d   1      -1.153   0.545   1.367  0.00  0.00     0.172 C 
ATOM      2  N   UNL d   1      -0.329   1.560   0.752  0.00  0.00    -0.070 N 
ATOM      3  C1  UNL d   1      -0.642   2.889   0.653  0.00  0.00    -0.004 A 
ATOM      4  C2  UNL d   1       0.398   3.519   0.004  0.00  0.00    -0.047 A 
ATOM      5  C3  UNL d   1       1.368   2.535  -0.298  0.00  0.00    -0.047 A 
ATOM      6  C4  UNL d   1       0.893   1.330   0.177  0.00  0.00    -0.004 A 
ENDROOT
TORSDOF 0
ENDMDL
