MODEL 1
REMARK minimizedAffinity -2.93332124
REMARK minimizedRMSD -1
REMARK  0 active torsions:
REMARK  status: ('A' for Active; 'I' for Inactive)
ROOT
ATOM      1  C   UNL d   1      -0.688  -0.377   0.470  0.00  0.00     0.172 C 
ATOM      2  N   UNL d   1       0.223   0.622  -0.035  0.00  0.00    -0.070 N 
ATOM      3  C1  UNL d   1       1.568   0.450  -0.231  0.00  0.00    -0.004 A 
ATOM      4  C2  UNL d   1       2.077   1.632  -0.722  0.00  0.00    -0.047 A 
ATOM      5  C3  UNL d   1       1.002   2.547  -0.824  0.00  0.00    -0.047 A 
ATOM      6  C4  UNL d   1      -0.134   1.895  -0.392  0.00  0.00    -0.004 A 
ENDROOT
TORSDOF 0
ENDMDL
