MODEL 1
REMARK minimizedAffinity 1.99647772
REMARK minimizedRMSD -1
REMARK  0 active torsions:
REMARK  status: ('A' for Active; 'I' for Inactive)
ROOT
ATOM      1  C   UNL d   1      -1.435  -0.559   2.319  0.00  0.00     0.172 C 
ATOM      2  N   UNL d   1      -0.772   0.489   1.579  0.00  0.00    -0.070 N 
ATOM      3  C1  UNL d   1      -1.163   1.800   1.528  0.00  0.00    -0.004 A 
ATOM      4  C2  UNL d   1      -0.272   2.475   0.721  0.00  0.00    -0.047 A 
ATOM      5  C3  UNL d   1       0.686   1.536   0.271  0.00  0.00    -0.047 A 
ATOM      6  C4  UNL d   1       0.353   0.315   0.817  0.00  0.00    -0.004 A 
ENDROOT
TORSDOF 0
ENDMDL
