MODEL 1
REMARK minimizedAffinity 4.9671464
REMARK minimizedRMSD -1
REMARK  0 active torsions:
REMARK  status: ('A' for Active; 'I' for Inactive)
ROOT
ATOM      1  C   UNL d   1       2.063   2.712   0.380  0.00  0.00     0.172 C 
ATOM      2  N   UNL d   1       0.671   2.674   0.762  0.00  0.00    -0.070 N 
ATOM      3  C1  UNL d   1      -0.374   3.158   0.020  0.00  0.00    -0.004 A 
ATOM      4  C2  UNL d   1      -1.534   2.931   0.728  0.00  0.00    -0.047 A 
ATOM      5  C3  UNL d   1      -1.175   2.289   1.936  0.00  0.00    -0.047 A 
ATOM      6  C4  UNL d   1       0.196   2.142   1.931  0.00  0.00    -0.004 A 
ENDROOT
TORSDOF 0
ENDMDL
