MODEL 1
REMARK minimizedAffinity 8.17302036
REMARK minimizedRMSD -1
REMARK  0 active torsions:
REMARK  status: ('A' for Active; 'I' for Inactive)
ROOT
ATOM      1  C   UNL d   1      -0.789   2.553   2.453  0.00  0.00     0.172 C 
ATOM      2  N   UNL d   1      -0.010   2.807   1.263  0.00  0.00    -0.070 N 
ATOM      3  C1  UNL d   1      -0.475   3.391   0.115  0.00  0.00    -0.004 A 
ATOM      4  C2  UNL d   1       0.572   3.454  -0.780  0.00  0.00    -0.047 A 
ATOM      5  C3  UNL d   1       1.704   2.886  -0.148  0.00  0.00    -0.047 A 
ATOM      6  C4  UNL d   1       1.315   2.494   1.115  0.00  0.00    -0.004 A 
ENDROOT
TORSDOF 0
ENDMDL
