MODEL 1
REMARK minimizedAffinity 2.3543303
REMARK minimizedRMSD -1
REMARK  0 active torsions:
REMARK  status: ('A' for Active; 'I' for Inactive)
ROOT
ATOM      1  C   UNL d   1       0.025   2.518   0.122  0.00  0.00     0.172 C 
ATOM      2  N   UNL d   1       1.442   2.465   0.399  0.00  0.00    -0.070 N 
ATOM      3  C1  UNL d   1       2.256   1.384   0.191  0.00  0.00    -0.004 A 
ATOM      4  C2  UNL d   1       3.531   1.735   0.579  0.00  0.00    -0.047 A 
ATOM      5  C3  UNL d   1       3.481   3.073   1.036  0.00  0.00    -0.047 A 
ATOM      6  C4  UNL d   1       2.176   3.501   0.913  0.00  0.00    -0.004 A 
ENDROOT
TORSDOF 0
ENDMDL
