MODEL 1
REMARK minimizedAffinity 2.03481579
REMARK minimizedRMSD -1
REMARK  0 active torsions:
REMARK  status: ('A' for Active; 'I' for Inactive)
ROOT
ATOM      1  C   UNL d   1      -0.170   2.955   0.193  0.00  0.00     0.172 C 
ATOM      2  N   UNL d   1       1.148   2.422   0.448  0.00  0.00    -0.070 N 
ATOM      3  C1  UNL d   1       1.511   1.106   0.345  0.00  0.00    -0.004 A 
ATOM      4  C2  UNL d   1       2.847   1.009   0.668  0.00  0.00    -0.047 A 
ATOM      5  C3  UNL d   1       3.303   2.313   0.978  0.00  0.00    -0.047 A 
ATOM      6  C4  UNL d   1       2.231   3.168   0.833  0.00  0.00    -0.004 A 
ENDROOT
TORSDOF 0
ENDMDL
