MODEL 1
REMARK minimizedAffinity 1.25187981
REMARK minimizedRMSD -1
REMARK  0 active torsions:
REMARK  status: ('A' for Active; 'I' for Inactive)
ROOT
ATOM      1  C   UNL d   1       2.223   1.416   3.108  0.00  0.00     0.172 C 
ATOM      2  N   UNL d   1       3.291   2.254   2.618  0.00  0.00    -0.070 N 
ATOM      3  C1  UNL d   1       4.295   2.794   3.377  0.00  0.00    -0.004 A 
ATOM      4  C2  UNL d   1       5.109   3.527   2.540  0.00  0.00    -0.047 A 
ATOM      5  C3  UNL d   1       4.576   3.425   1.234  0.00  0.00    -0.047 A 
ATOM      6  C4  UNL d   1       3.450   2.632   1.311  0.00  0.00    -0.004 A 
ENDROOT
TORSDOF 0
ENDMDL
