MODEL 1
REMARK minimizedAffinity -0.556313872
REMARK minimizedRMSD -1
REMARK  0 active torsions:
REMARK  status: ('A' for Active; 'I' for Inactive)
ROOT
ATOM      1  C   UNL d   1       4.398  -5.994  -4.333  0.00  0.00     0.172 C 
ATOM      2  N   UNL d   1       2.956  -5.996  -4.398  0.00  0.00    -0.070 N 
ATOM      3  C1  UNL d   1       2.208  -5.998  -5.545  0.00  0.00    -0.004 A 
ATOM      4  C2  UNL d   1       0.879  -6.000  -5.183  0.00  0.00    -0.047 A 
ATOM      5  C3  UNL d   1       0.825  -5.998  -3.769  0.00  0.00    -0.047 A 
ATOM      6  C4  UNL d   1       2.125  -5.996  -3.309  0.00  0.00    -0.004 A 
ENDROOT
TORSDOF 0
ENDMDL
