MODEL 1
REMARK minimizedAffinity 1.11103153
REMARK minimizedRMSD -1
REMARK  0 active torsions:
REMARK  status: ('A' for Active; 'I' for Inactive)
ROOT
ATOM      1  C   UNL d   1      -0.404   2.066   2.334  0.00  0.00     0.172 C 
ATOM      2  N   UNL d   1       0.450   1.532   1.299  0.00  0.00    -0.070 N 
ATOM      3  C1  UNL d   1       1.062   0.307   1.322  0.00  0.00    -0.004 A 
ATOM      4  C2  UNL d   1       1.784   0.174   0.156  0.00  0.00    -0.047 A 
ATOM      5  C3  UNL d   1       1.601   1.361  -0.593  0.00  0.00    -0.047 A 
ATOM      6  C4  UNL d   1       0.771   2.184   0.138  0.00  0.00    -0.004 A 
ENDROOT
TORSDOF 0
ENDMDL
