MODEL 1
REMARK minimizedAffinity -1.19517934
REMARK minimizedRMSD -1
REMARK  0 active torsions:
REMARK  status: ('A' for Active; 'I' for Inactive)
ROOT
ATOM      1  C   UNL d   1       2.582   2.247   2.221  0.00  0.00     0.172 C 
ATOM      2  N   UNL d   1       1.398   2.789   1.598  0.00  0.00    -0.070 N 
ATOM      3  C1  UNL d   1       0.122   2.322   1.768  0.00  0.00    -0.004 A 
ATOM      4  C2  UNL d   1      -0.719   3.106   1.008  0.00  0.00    -0.047 A 
ATOM      5  C3  UNL d   1       0.079   4.078   0.359  0.00  0.00    -0.047 A 
ATOM      6  C4  UNL d   1       1.385   3.859   0.743  0.00  0.00    -0.004 A 
ENDROOT
TORSDOF 0
ENDMDL
