MODEL 1
REMARK minimizedAffinity -0.242683962
REMARK minimizedRMSD -1
REMARK  0 active torsions:
REMARK  status: ('A' for Active; 'I' for Inactive)
ROOT
ATOM      1  C   UNL d   1       3.639   5.997   2.649  0.00  0.00     0.172 C 
ATOM      2  N   UNL d   1       3.647   4.618   2.220  0.00  0.00    -0.070 N 
ATOM      3  C1  UNL d   1       4.733   3.939   1.736  0.00  0.00    -0.004 A 
ATOM      4  C2  UNL d   1       4.330   2.655   1.441  0.00  0.00    -0.047 A 
ATOM      5  C3  UNL d   1       2.954   2.559   1.757  0.00  0.00    -0.047 A 
ATOM      6  C4  UNL d   1       2.557   3.789   2.237  0.00  0.00    -0.004 A 
ENDROOT
TORSDOF 0
ENDMDL
