MODEL 1
REMARK minimizedAffinity 2.57657337
REMARK minimizedRMSD -1
REMARK  0 active torsions:
REMARK  status: ('A' for Active; 'I' for Inactive)
ROOT
ATOM      1  C   UNL d   1       2.729   3.088   0.742  0.00  0.00     0.172 C 
ATOM      2  N   UNL d   1       1.288   3.019   0.807  0.00  0.00    -0.070 N 
ATOM      3  C1  UNL d   1       0.542   2.970   1.954  0.00  0.00    -0.004 A 
ATOM      4  C2  UNL d   1      -0.786   2.912   1.591  0.00  0.00    -0.047 A 
ATOM      5  C3  UNL d   1      -0.841   2.927   0.177  0.00  0.00    -0.047 A 
ATOM      6  C4  UNL d   1       0.458   2.993  -0.283  0.00  0.00    -0.004 A 
ENDROOT
TORSDOF 0
ENDMDL
