MODEL 1
REMARK minimizedAffinity 1.94607055
REMARK minimizedRMSD -1
REMARK  0 active torsions:
REMARK  status: ('A' for Active; 'I' for Inactive)
ROOT
ATOM      1  C   UNL d   1      -0.209   2.737   0.696  0.00  0.00     0.172 C 
ATOM      2  N   UNL d   1       1.176   2.334   0.772  0.00  0.00    -0.070 N 
ATOM      3  C1  UNL d   1       1.690   1.154   0.305  0.00  0.00    -0.004 A 
ATOM      4  C2  UNL d   1       3.043   1.150   0.566  0.00  0.00    -0.047 A 
ATOM      5  C3  UNL d   1       3.353   2.370   1.213  0.00  0.00    -0.047 A 
ATOM      6  C4  UNL d   1       2.178   3.084   1.328  0.00  0.00    -0.004 A 
ENDROOT
TORSDOF 0
ENDMDL
