MODEL 1
REMARK minimizedAffinity 11.3500681
REMARK minimizedRMSD -1
REMARK  0 active torsions:
REMARK  status: ('A' for Active; 'I' for Inactive)
ROOT
ATOM      1  C   UNL d   1      -1.925  -2.496  -0.012  0.00  0.00     0.023 A 
ATOM      2  C1  UNL d   1      -1.454  -3.698  -0.541  0.00  0.00     0.003 A 
ATOM      3  C2  UNL d   1      -0.992  -4.703   0.311  0.00  0.00     0.048 A 
ATOM      4  C3  UNL d   1      -1.006  -4.502   1.691  0.00  0.00     0.023 A 
ATOM      5  C4  UNL d   1      -1.478  -3.301   2.225  0.00  0.00     0.048 A 
ATOM      6  C5  UNL d   1      -1.937  -2.298   1.369  0.00  0.00     0.003 A 
ATOM      7  I   UNL d   1      -0.320  -5.998   2.960  0.00  0.00    -0.146 I 
ENDROOT
TORSDOF 0
ENDMDL
