MODEL 1
REMARK minimizedAffinity 5.13038778
REMARK minimizedRMSD -1
REMARK  0 active torsions:
REMARK  status: ('A' for Active; 'I' for Inactive)
ROOT
ATOM      1  C   UNL d   1      -6.000   5.700  -5.165  0.00  0.00     0.023 A 
ATOM      2  C1  UNL d   1      -5.741   4.587  -5.965  0.00  0.00     0.003 A 
ATOM      3  C2  UNL d   1      -4.641   3.771  -5.695  0.00  0.00     0.048 A 
ATOM      4  C3  UNL d   1      -3.804   4.073  -4.622  0.00  0.00     0.023 A 
ATOM      5  C4  UNL d   1      -4.059   5.185  -3.817  0.00  0.00     0.048 A 
ATOM      6  C5  UNL d   1      -5.159   5.998  -4.092  0.00  0.00     0.003 A 
ATOM      7  I   UNL d   1      -2.165   2.860  -4.217  0.00  0.00    -0.146 I 
ENDROOT
TORSDOF 0
ENDMDL
