MODEL 1
REMARK minimizedAffinity 9.24838448
REMARK minimizedRMSD -1
REMARK  0 active torsions:
REMARK  status: ('A' for Active; 'I' for Inactive)
ROOT
ATOM      1  C   UNL d   1      -4.889   6.000   0.744  0.00  0.00     0.023 A 
ATOM      2  C1  UNL d   1      -3.651   5.358   0.777  0.00  0.00     0.003 A 
ATOM      3  C2  UNL d   1      -3.521   4.062   0.274  0.00  0.00     0.048 A 
ATOM      4  C3  UNL d   1      -4.634   3.414  -0.262  0.00  0.00     0.023 A 
ATOM      5  C4  UNL d   1      -5.874   4.052  -0.298  0.00  0.00     0.048 A 
ATOM      6  C5  UNL d   1      -5.999   5.348   0.207  0.00  0.00     0.003 A 
ATOM      7  I   UNL d   1      -4.443   1.485  -1.012  0.00  0.00    -0.146 I 
ENDROOT
TORSDOF 0
ENDMDL
