MODEL 1
REMARK minimizedAffinity 9.66076374
REMARK minimizedRMSD -1
REMARK  0 active torsions:
REMARK  status: ('A' for Active; 'I' for Inactive)
ROOT
ATOM      1  C   UNL d   1      -1.029  -4.174   1.383  0.00  0.00     0.023 A 
ATOM      2  C1  UNL d   1      -0.335  -4.856   0.383  0.00  0.00     0.003 A 
ATOM      3  C2  UNL d   1      -0.102  -4.243  -0.850  0.00  0.00     0.048 A 
ATOM      4  C3  UNL d   1      -0.564  -2.947  -1.076  0.00  0.00     0.023 A 
ATOM      5  C4  UNL d   1      -1.258  -2.260  -0.078  0.00  0.00     0.048 A 
ATOM      6  C5  UNL d   1      -1.490  -2.878   1.152  0.00  0.00     0.003 A 
ATOM      7  I   UNL d   1      -0.218  -2.032  -2.910  0.00  0.00    -0.146 I 
ENDROOT
TORSDOF 0
ENDMDL
