MODEL 1
REMARK minimizedAffinity 6.79721928
REMARK minimizedRMSD -1
REMARK  0 active torsions:
REMARK  status: ('A' for Active; 'I' for Inactive)
ROOT
ATOM      1  C   UNL d   1      -1.174  -3.752   1.435  0.00  0.00     0.023 A 
ATOM      2  C1  UNL d   1      -1.574  -2.415   1.428  0.00  0.00     0.003 A 
ATOM      3  C2  UNL d   1      -1.843  -1.772   0.218  0.00  0.00     0.048 A 
ATOM      4  C3  UNL d   1      -1.712  -2.472  -0.981  0.00  0.00     0.023 A 
ATOM      5  C4  UNL d   1      -1.313  -3.809  -0.978  0.00  0.00     0.048 A 
ATOM      6  C5  UNL d   1      -1.044  -4.448   0.234  0.00  0.00     0.003 A 
ATOM      7  I   UNL d   1      -2.112  -1.517  -2.783  0.00  0.00    -0.146 I 
ENDROOT
TORSDOF 0
ENDMDL
