MODEL 1
REMARK minimizedAffinity 9.50695419
REMARK minimizedRMSD -1
REMARK  0 active torsions:
REMARK  status: ('A' for Active; 'I' for Inactive)
ROOT
ATOM      1  C   UNL d   1      -5.767   1.759   6.000  0.00  0.00     0.023 A 
ATOM      2  C1  UNL d   1      -5.960   0.397   5.767  0.00  0.00     0.003 A 
ATOM      3  C2  UNL d   1      -4.863  -0.435   5.532  0.00  0.00     0.048 A 
ATOM      4  C3  UNL d   1      -3.576   0.101   5.533  0.00  0.00     0.023 A 
ATOM      5  C4  UNL d   1      -3.378   1.463   5.767  0.00  0.00     0.048 A 
ATOM      6  C5  UNL d   1      -4.478   2.291   6.000  0.00  0.00     0.003 A 
ATOM      7  I   UNL d   1      -1.942  -1.135   5.185  0.00  0.00    -0.146 I 
ENDROOT
TORSDOF 0
ENDMDL
