MODEL 1
REMARK minimizedAffinity 11.1617022
REMARK minimizedRMSD -1
REMARK  0 active torsions:
REMARK  status: ('A' for Active; 'I' for Inactive)
ROOT
ATOM      1  C   UNL d   1      -0.742  -1.382  -2.872  0.00  0.00     0.023 A 
ATOM      2  C1  UNL d   1      -0.735  -1.663  -1.505  0.00  0.00     0.003 A 
ATOM      3  C2  UNL d   1      -0.760  -2.988  -1.063  0.00  0.00     0.048 A 
ATOM      4  C3  UNL d   1      -0.791  -4.027  -1.993  0.00  0.00     0.023 A 
ATOM      5  C4  UNL d   1      -0.797  -3.750  -3.361  0.00  0.00     0.048 A 
ATOM      6  C5  UNL d   1      -0.773  -2.424  -3.799  0.00  0.00     0.003 A 
ATOM      7  I   UNL d   1      -0.828  -5.999  -1.338  0.00  0.00    -0.146 I 
ENDROOT
TORSDOF 0
ENDMDL
