MODEL 1
REMARK minimizedAffinity 14.8331728
REMARK minimizedRMSD -1
REMARK  0 active torsions:
REMARK  status: ('A' for Active; 'I' for Inactive)
ROOT
ATOM      1  C   UNL d   1      -3.111  -3.307   5.186  0.00  0.00     0.023 A 
ATOM      2  C1  UNL d   1      -2.214  -2.290   4.857  0.00  0.00     0.003 A 
ATOM      3  C2  UNL d   1      -2.554  -0.956   5.090  0.00  0.00     0.048 A 
ATOM      4  C3  UNL d   1      -3.792  -0.646   5.653  0.00  0.00     0.023 A 
ATOM      5  C4  UNL d   1      -4.692  -1.660   5.984  0.00  0.00     0.048 A 
ATOM      6  C5  UNL d   1      -4.348  -2.993   5.749  0.00  0.00     0.003 A 
ATOM      7  I   UNL d   1      -4.300   1.339   6.000  0.00  0.00    -0.146 I 
ENDROOT
TORSDOF 0
ENDMDL
