MODEL 1
REMARK minimizedAffinity 11.2058334
REMARK minimizedRMSD -1
REMARK  0 active torsions:
REMARK  status: ('A' for Active; 'I' for Inactive)
ROOT
ATOM      1  C   UNL d   1      -0.947  -3.582   0.847  0.00  0.00     0.023 A 
ATOM      2  C1  UNL d   1      -0.635  -4.420  -0.224  0.00  0.00     0.003 A 
ATOM      3  C2  UNL d   1      -0.731  -3.946  -1.534  0.00  0.00     0.048 A 
ATOM      4  C3  UNL d   1      -1.139  -2.633  -1.766  0.00  0.00     0.023 A 
ATOM      5  C4  UNL d   1      -1.452  -1.791  -0.698  0.00  0.00     0.048 A 
ATOM      6  C5  UNL d   1      -1.355  -2.270   0.610  0.00  0.00     0.003 A 
ATOM      7  I   UNL d   1      -1.283  -1.925  -3.715  0.00  0.00    -0.146 I 
ENDROOT
TORSDOF 0
ENDMDL
