MODEL 1
REMARK minimizedAffinity 15.1569948
REMARK minimizedRMSD -1
REMARK  0 active torsions:
REMARK  status: ('A' for Active; 'I' for Inactive)
ROOT
ATOM      1  C   UNL d   1      -2.700  -2.280   4.870  0.00  0.00     0.023 A 
ATOM      2  C1  UNL d   1      -1.901  -3.214   5.529  0.00  0.00     0.003 A 
ATOM      3  C2  UNL d   1      -0.580  -2.898   5.854  0.00  0.00     0.048 A 
ATOM      4  C3  UNL d   1      -0.065  -1.647   5.517  0.00  0.00     0.023 A 
ATOM      5  C4  UNL d   1      -0.862  -0.709   4.858  0.00  0.00     0.048 A 
ATOM      6  C5  UNL d   1      -2.182  -1.029   4.535  0.00  0.00     0.003 A 
ATOM      7  I   UNL d   1       1.900  -1.175   6.000  0.00  0.00    -0.146 I 
ENDROOT
TORSDOF 0
ENDMDL
