MODEL 1
REMARK minimizedAffinity 7.61770344
REMARK minimizedRMSD -1
REMARK  0 active torsions:
REMARK  status: ('A' for Active; 'I' for Inactive)
ROOT
ATOM      1  C   UNL d   1      -3.342  -2.992   5.958  0.00  0.00     0.023 A 
ATOM      2  C1  UNL d   1      -4.490  -2.201   5.919  0.00  0.00     0.003 A 
ATOM      3  C2  UNL d   1      -4.381  -0.809   5.920  0.00  0.00     0.048 A 
ATOM      4  C3  UNL d   1      -3.120  -0.214   5.959  0.00  0.00     0.023 A 
ATOM      5  C4  UNL d   1      -1.968  -1.002   5.997  0.00  0.00     0.048 A 
ATOM      6  C5  UNL d   1      -2.082  -2.393   5.997  0.00  0.00     0.003 A 
ATOM      7  I   UNL d   1      -2.955   1.857   5.960  0.00  0.00    -0.146 I 
ENDROOT
TORSDOF 0
ENDMDL
