MODEL 1
REMARK minimizedAffinity 5.21575785
REMARK minimizedRMSD -1
REMARK  0 active torsions:
REMARK  status: ('A' for Active; 'I' for Inactive)
ROOT
ATOM      1  C   UNL d   1      -5.250   4.689   1.869  0.00  0.00     0.023 A 
ATOM      2  C1  UNL d   1      -4.086   4.138   1.333  0.00  0.00     0.003 A 
ATOM      3  C2  UNL d   1      -3.657   4.512   0.058  0.00  0.00     0.048 A 
ATOM      4  C3  UNL d   1      -4.398   5.438  -0.676  0.00  0.00     0.023 A 
ATOM      5  C4  UNL d   1      -5.563   5.992  -0.144  0.00  0.00     0.048 A 
ATOM      6  C5  UNL d   1      -5.988   5.615   1.131  0.00  0.00     0.003 A 
ATOM      7  I   UNL d   1      -3.762   5.996  -2.575  0.00  0.00    -0.146 I 
ENDROOT
TORSDOF 0
ENDMDL
