MODEL 1
REMARK minimizedAffinity 11.0432529
REMARK minimizedRMSD -1
REMARK  0 active torsions:
REMARK  status: ('A' for Active; 'I' for Inactive)
ROOT
ATOM      1  C   UNL d   1      -5.740   4.097   0.970  0.00  0.00     0.023 A 
ATOM      2  C1  UNL d   1      -5.726   3.215   2.051  0.00  0.00     0.003 A 
ATOM      3  C2  UNL d   1      -5.800   3.707   3.356  0.00  0.00     0.048 A 
ATOM      4  C3  UNL d   1      -5.887   5.081   3.573  0.00  0.00     0.023 A 
ATOM      5  C4  UNL d   1      -5.902   5.967   2.494  0.00  0.00     0.048 A 
ATOM      6  C5  UNL d   1      -5.827   5.471   1.192  0.00  0.00     0.003 A 
ATOM      7  I   UNL d   1      -5.997   5.816   5.514  0.00  0.00    -0.146 I 
ENDROOT
TORSDOF 0
ENDMDL
