MODEL 1
REMARK minimizedAffinity 7.73408031
REMARK minimizedRMSD -1
REMARK  0 active torsions:
REMARK  status: ('A' for Active; 'I' for Inactive)
ROOT
ATOM      1  C   UNL d   1      -2.531  -2.446   5.697  0.00  0.00     0.023 A 
ATOM      2  C1  UNL d   1      -1.693  -1.338   5.570  0.00  0.00     0.003 A 
ATOM      3  C2  UNL d   1      -2.220  -0.048   5.656  0.00  0.00     0.048 A 
ATOM      4  C3  UNL d   1      -3.587   0.127   5.871  0.00  0.00     0.023 A 
ATOM      5  C4  UNL d   1      -4.429  -0.978   6.000  0.00  0.00     0.048 A 
ATOM      6  C5  UNL d   1      -3.897  -2.266   5.912  0.00  0.00     0.003 A 
ATOM      7  I   UNL d   1      -4.374   2.046   5.999  0.00  0.00    -0.146 I 
ENDROOT
TORSDOF 0
ENDMDL
