MODEL 1
REMARK minimizedAffinity 11.2619228
REMARK minimizedRMSD -1
REMARK  0 active torsions:
REMARK  status: ('A' for Active; 'I' for Inactive)
ROOT
ATOM      1  C   UNL d   1       4.214   3.344   0.036  0.00  0.00     0.023 A 
ATOM      2  C1  UNL d   1       5.478   2.789  -0.165  0.00  0.00     0.003 A 
ATOM      3  C2  UNL d   1       5.993   1.869   0.750  0.00  0.00     0.048 A 
ATOM      4  C3  UNL d   1       5.237   1.507   1.865  0.00  0.00     0.023 A 
ATOM      5  C4  UNL d   1       3.971   2.059   2.070  0.00  0.00     0.048 A 
ATOM      6  C5  UNL d   1       3.462   2.979   1.152  0.00  0.00     0.003 A 
ATOM      7  I   UNL d   1       6.000   0.137   3.230  0.00  0.00    -0.146 I 
ENDROOT
TORSDOF 0
ENDMDL
