MODEL 1
REMARK minimizedAffinity 6.27113628
REMARK minimizedRMSD -1
REMARK  0 active torsions:
REMARK  status: ('A' for Active; 'I' for Inactive)
ROOT
ATOM      1  C   UNL d   1      -5.369   4.358   1.520  0.00  0.00     0.023 A 
ATOM      2  C1  UNL d   1      -6.000   5.524   1.084  0.00  0.00     0.003 A 
ATOM      3  C2  UNL d   1      -5.778   5.996  -0.211  0.00  0.00     0.048 A 
ATOM      4  C3  UNL d   1      -4.925   5.298  -1.066  0.00  0.00     0.023 A 
ATOM      5  C4  UNL d   1      -4.292   4.131  -0.634  0.00  0.00     0.048 A 
ATOM      6  C5  UNL d   1      -4.516   3.663   0.662  0.00  0.00     0.003 A 
ATOM      7  I   UNL d   1      -4.594   6.000  -2.994  0.00  0.00    -0.146 I 
ENDROOT
TORSDOF 0
ENDMDL
