MODEL 1
REMARK minimizedAffinity 4.84192562
REMARK minimizedRMSD -1
REMARK  0 active torsions:
REMARK  status: ('A' for Active; 'I' for Inactive)
ROOT
ATOM      1  C   UNL d   1      -0.630  -1.935  -0.185  0.00  0.00    -0.002 A 
ATOM      2  C1  UNL d   1       0.084  -0.825   0.243  0.00  0.00     0.010 A 
ATOM      3  C2  UNL d   1       1.457  -0.911   0.480  0.00  0.00     0.041 A 
ATOM      4  C3  UNL d   1       2.108  -2.144   0.277  0.00  0.00    -0.075 A 
ATOM      5  S   UNL d   1       3.782  -2.486   0.504  0.00  0.00     0.015 SA
ATOM      6  C4  UNL d   1       3.590  -4.114   0.037  0.00  0.00     0.022 A 
ATOM      7  C5  UNL d   1       2.286  -4.407  -0.287  0.00  0.00     0.026 A 
ATOM      8  C6  UNL d   1       1.411  -3.276  -0.154  0.00  0.00    -0.082 A 
ATOM      9  C7  UNL d   1       0.019  -3.157  -0.386  0.00  0.00     0.045 A 
ENDROOT
TORSDOF 0
ENDMDL
