MODEL 1
REMARK minimizedAffinity -1.99792635
REMARK minimizedRMSD -1
REMARK  0 active torsions:
REMARK  status: ('A' for Active; 'I' for Inactive)
ROOT
ATOM      1  C   UNL d   1      -0.647  -2.335   0.255  0.00  0.00    -0.002 A 
ATOM      2  C1  UNL d   1      -0.005  -1.121   0.452  0.00  0.00     0.010 A 
ATOM      3  C2  UNL d   1       1.388  -1.041   0.416  0.00  0.00     0.041 A 
ATOM      4  C3  UNL d   1       2.133  -2.212   0.175  0.00  0.00    -0.075 A 
ATOM      5  S   UNL d   1       3.849  -2.354   0.086  0.00  0.00     0.015 SA
ATOM      6  C4  UNL d   1       3.770  -4.029  -0.216  0.00  0.00     0.022 A 
ATOM      7  C5  UNL d   1       2.473  -4.486  -0.251  0.00  0.00     0.026 A 
ATOM      8  C6  UNL d   1       1.509  -3.446  -0.027  0.00  0.00    -0.082 A 
ATOM      9  C7  UNL d   1       0.094  -3.495   0.016  0.00  0.00     0.045 A 
ENDROOT
TORSDOF 0
ENDMDL
