MODEL 1
REMARK minimizedAffinity 0.157258809
REMARK minimizedRMSD -1
REMARK  0 active torsions:
REMARK  status: ('A' for Active; 'I' for Inactive)
ROOT
ATOM      1  C   UNL d   1      -0.829  -1.406   0.548  0.00  0.00    -0.002 A 
ATOM      2  C1  UNL d   1       0.082  -0.390   0.798  0.00  0.00     0.010 A 
ATOM      3  C2  UNL d   1       1.452  -0.612   0.648  0.00  0.00     0.041 A 
ATOM      4  C3  UNL d   1       1.895  -1.884   0.236  0.00  0.00    -0.075 A 
ATOM      5  S   UNL d   1       3.526  -2.386  -0.015  0.00  0.00     0.015 SA
ATOM      6  C4  UNL d   1       3.051  -3.961  -0.462  0.00  0.00     0.022 A 
ATOM      7  C5  UNL d   1       1.686  -4.118  -0.425  0.00  0.00     0.026 A 
ATOM      8  C6  UNL d   1       0.997  -2.923  -0.023  0.00  0.00    -0.082 A 
ATOM      9  C7  UNL d   1      -0.386  -2.667   0.139  0.00  0.00     0.045 A 
ENDROOT
TORSDOF 0
ENDMDL
