MODEL 1
REMARK minimizedAffinity 5.09719324
REMARK minimizedRMSD -1
REMARK  0 active torsions:
REMARK  status: ('A' for Active; 'I' for Inactive)
ROOT
ATOM      1  C   UNL d   1      -0.392  -1.559   1.111  0.00  0.00    -0.002 A 
ATOM      2  C1  UNL d   1      -0.073  -2.735   0.447  0.00  0.00     0.010 A 
ATOM      3  C2  UNL d   1       1.260  -3.106   0.259  0.00  0.00     0.041 A 
ATOM      4  C3  UNL d   1       2.277  -2.268   0.756  0.00  0.00    -0.075 A 
ATOM      5  S   UNL d   1       3.979  -2.519   0.644  0.00  0.00     0.015 SA
ATOM      6  C4  UNL d   1       4.323  -1.072   1.476  0.00  0.00     0.022 A 
ATOM      7  C5  UNL d   1       3.179  -0.401   1.838  0.00  0.00     0.026 A 
ATOM      8  C6  UNL d   1       1.981  -1.079   1.430  0.00  0.00    -0.082 A 
ATOM      9  C7  UNL d   1       0.620  -0.731   1.604  0.00  0.00     0.045 A 
ENDROOT
TORSDOF 0
ENDMDL
