MODEL 1
REMARK minimizedAffinity 4.11228132
REMARK minimizedRMSD -1
REMARK  0 active torsions:
REMARK  status: ('A' for Active; 'I' for Inactive)
ROOT
ATOM      1  C   UNL d   1       3.991  -1.243   0.784  0.00  0.00    -0.002 A 
ATOM      2  C1  UNL d   1       3.902  -0.552   1.984  0.00  0.00     0.010 A 
ATOM      3  C2  UNL d   1       2.662  -0.143   2.477  0.00  0.00     0.041 A 
ATOM      4  C3  UNL d   1       1.501  -0.445   1.739  0.00  0.00    -0.075 A 
ATOM      5  S   UNL d   1      -0.125  -0.046   2.148  0.00  0.00     0.015 SA
ATOM      6  C4  UNL d   1      -0.740  -0.784   0.741  0.00  0.00     0.022 A 
ATOM      7  C5  UNL d   1       0.257  -1.327  -0.034  0.00  0.00     0.026 A 
ATOM      8  C6  UNL d   1       1.565  -1.141   0.528  0.00  0.00    -0.082 A 
ATOM      9  C7  UNL d   1       2.837  -1.541   0.054  0.00  0.00     0.045 A 
ENDROOT
TORSDOF 0
ENDMDL
