MODEL 1
REMARK minimizedAffinity 3.06216431
REMARK minimizedRMSD -1
REMARK  0 active torsions:
REMARK  status: ('A' for Active; 'I' for Inactive)
ROOT
ATOM      1  C   UNL d   1       2.002  -4.051  -0.439  0.00  0.00    -0.002 A 
ATOM      2  C1  UNL d   1       3.002  -3.093  -0.348  0.00  0.00     0.010 A 
ATOM      3  C2  UNL d   1       2.740  -1.844   0.219  0.00  0.00     0.041 A 
ATOM      4  C3  UNL d   1       1.444  -1.572   0.700  0.00  0.00    -0.075 A 
ATOM      5  S   UNL d   1       0.893  -0.113   1.434  0.00  0.00     0.015 SA
ATOM      6  C4  UNL d   1      -0.683  -0.727   1.646  0.00  0.00     0.022 A 
ATOM      7  C5  UNL d   1      -0.803  -2.013   1.174  0.00  0.00     0.026 A 
ATOM      8  C6  UNL d   1       0.421  -2.521   0.621  0.00  0.00    -0.082 A 
ATOM      9  C7  UNL d   1       0.718  -3.777   0.040  0.00  0.00     0.045 A 
ENDROOT
TORSDOF 0
ENDMDL
