MODEL 1
REMARK minimizedAffinity 14.6373739
REMARK minimizedRMSD -1
REMARK  0 active torsions:
REMARK  status: ('A' for Active; 'I' for Inactive)
ROOT
ATOM      1  C   UNL d   1      -0.382  -0.683   4.982  0.00  0.00    -0.002 A 
ATOM      2  C1  UNL d   1       0.225  -0.667   3.734  0.00  0.00     0.010 A 
ATOM      3  C2  UNL d   1      -0.218   0.207   2.740  0.00  0.00     0.041 A 
ATOM      4  C3  UNL d   1      -1.292   1.074   3.024  0.00  0.00    -0.075 A 
ATOM      5  S   UNL d   1      -2.003   2.230   1.961  0.00  0.00     0.015 SA
ATOM      6  C4  UNL d   1      -3.130   2.730   3.138  0.00  0.00     0.022 A 
ATOM      7  C5  UNL d   1      -2.981   2.042   4.319  0.00  0.00     0.026 A 
ATOM      8  C6  UNL d   1      -1.919   1.077   4.273  0.00  0.00    -0.082 A 
ATOM      9  C7  UNL d   1      -1.447   0.178   5.260  0.00  0.00     0.045 A 
ENDROOT
TORSDOF 0
ENDMDL
