MODEL 1
REMARK minimizedAffinity -1.22575629
REMARK minimizedRMSD -1
REMARK  0 active torsions:
REMARK  status: ('A' for Active; 'I' for Inactive)
ROOT
ATOM      1  C   UNL d   1       0.312   0.222   0.986  0.00  0.00    -0.002 A 
ATOM      2  C1  UNL d   1      -0.908  -0.327   0.616  0.00  0.00     0.010 A 
ATOM      3  C2  UNL d   1      -0.971  -1.602   0.050  0.00  0.00     0.041 A 
ATOM      4  C3  UNL d   1       0.224  -2.324  -0.137  0.00  0.00    -0.075 A 
ATOM      5  S   UNL d   1       0.391  -3.902  -0.811  0.00  0.00     0.015 SA
ATOM      6  C4  UNL d   1       2.084  -3.885  -0.622  0.00  0.00     0.022 A 
ATOM      7  C5  UNL d   1       2.529  -2.712  -0.061  0.00  0.00     0.026 A 
ATOM      8  C6  UNL d   1       1.465  -1.792   0.228  0.00  0.00    -0.082 A 
ATOM      9  C7  UNL d   1       1.495  -0.497   0.798  0.00  0.00     0.045 A 
ENDROOT
TORSDOF 0
ENDMDL
