MODEL 1
REMARK minimizedAffinity 6.12541342
REMARK minimizedRMSD -1
REMARK  0 active torsions:
REMARK  status: ('A' for Active; 'I' for Inactive)
ROOT
ATOM      1  C   UNL d   1       1.218  -2.811   0.038  0.00  0.00    -0.002 A 
ATOM      2  C1  UNL d   1       2.250  -1.883   0.018  0.00  0.00     0.010 A 
ATOM      3  C2  UNL d   1       3.581  -2.303  -0.023  0.00  0.00     0.041 A 
ATOM      4  C3  UNL d   1       3.860  -3.684  -0.047  0.00  0.00    -0.075 A 
ATOM      5  S   UNL d   1       5.413  -4.430  -0.100  0.00  0.00     0.015 SA
ATOM      6  C4  UNL d   1       4.743  -5.997  -0.099  0.00  0.00     0.022 A 
ATOM      7  C5  UNL d   1       3.369  -5.970  -0.059  0.00  0.00     0.026 A 
ATOM      8  C6  UNL d   1       2.837  -4.637  -0.029  0.00  0.00    -0.082 A 
ATOM      9  C7  UNL d   1       1.498  -4.179   0.014  0.00  0.00     0.045 A 
ENDROOT
TORSDOF 0
ENDMDL
