MODEL 1
REMARK minimizedAffinity -1.95552492
REMARK minimizedRMSD -1
REMARK  1 active torsions:
REMARK  status: ('A' for Active; 'I' for Inactive)
REMARK    1  A    between atoms: C3_4  and  O_7 
ROOT
ATOM      1  C   UNL d   1      -1.043   2.574   0.100  0.00  0.00    -0.033 A 
ATOM      2  C1  UNL d   1      -1.874   1.630  -0.506  0.00  0.00     0.039 A 
ATOM      3  C2  UNL d   1      -1.479   0.292  -0.574  0.00  0.00    -0.080 A 
ATOM      4  C3  UNL d   1      -0.254  -0.087  -0.032  0.00  0.00     0.150 A 
ATOM      5  C4  UNL d   1       0.577   0.848   0.576  0.00  0.00    -0.007 A 
ATOM      6  C5  UNL d   1       0.181   2.183   0.642  0.00  0.00     0.039 A 
ENDROOT
BRANCH   4   7
ATOM      7  O   UNL d   1       0.176  -1.380  -0.079  0.00  0.00    -0.526 OA
ATOM      8  H5  UNL d   1      -0.488  -1.908  -0.553  0.00  0.00     0.418 HD
ENDBRANCH   4   7
TORSDOF 1
ENDMDL
