MODEL 1
REMARK minimizedAffinity -1.65131664
REMARK minimizedRMSD -1
REMARK  1 active torsions:
REMARK  status: ('A' for Active; 'I' for Inactive)
REMARK    1  A    between atoms: C3_4  and  O_7 
ROOT
ATOM      1  C   UNL d   1       0.061  -2.955  -1.805  0.00  0.00    -0.033 A 
ATOM      2  C1  UNL d   1      -0.504  -3.232  -3.051  0.00  0.00     0.039 A 
ATOM      3  C2  UNL d   1      -1.826  -3.672  -3.138  0.00  0.00    -0.080 A 
ATOM      4  C3  UNL d   1      -2.571  -3.829  -1.972  0.00  0.00     0.150 A 
ATOM      5  C4  UNL d   1      -2.016  -3.552  -0.728  0.00  0.00    -0.007 A 
ATOM      6  C5  UNL d   1      -0.695  -3.113  -0.643  0.00  0.00     0.039 A 
ENDROOT
BRANCH   4   7
ATOM      7  O   UNL d   1      -3.864  -4.261  -2.006  0.00  0.00    -0.526 OA
ATOM      8  H5  UNL d   1      -4.104  -4.441  -2.931  0.00  0.00     0.418 HD
ENDBRANCH   4   7
TORSDOF 1
ENDMDL
