MODEL 1
REMARK minimizedAffinity -4.48692513
REMARK minimizedRMSD -1
REMARK  1 active torsions:
REMARK  status: ('A' for Active; 'I' for Inactive)
REMARK    1  A    between atoms: C3_4  and  O_7 
ROOT
ATOM      1  C   UNL d   1      -0.192  -0.843  -0.635  0.00  0.00    -0.033 A 
ATOM      2  C1  UNL d   1      -1.002  -0.066  -1.465  0.00  0.00     0.039 A 
ATOM      3  C2  UNL d   1      -0.998   1.325  -1.345  0.00  0.00    -0.080 A 
ATOM      4  C3  UNL d   1      -0.179   1.926  -0.393  0.00  0.00     0.150 A 
ATOM      5  C4  UNL d   1       0.634   1.158   0.435  0.00  0.00    -0.007 A 
ATOM      6  C5  UNL d   1       0.627  -0.231   0.314  0.00  0.00     0.039 A 
ENDROOT
BRANCH   4   7
ATOM      7  O   UNL d   1      -0.144   3.279  -0.236  0.00  0.00    -0.526 OA
ATOM      8  H5  UNL d   1      -0.777   3.678  -0.856  0.00  0.00     0.418 HD
ENDBRANCH   4   7
TORSDOF 1
ENDMDL
