MODEL 1
REMARK minimizedAffinity -5.15445662
REMARK minimizedRMSD -1
REMARK  1 active torsions:
REMARK  status: ('A' for Active; 'I' for Inactive)
REMARK    1  A    between atoms: C3_4  and  O_7 
ROOT
ATOM      1  C   UNL d   1      -0.297   2.726   0.067  0.00  0.00    -0.033 A 
ATOM      2  C1  UNL d   1      -0.522   1.385  -0.252  0.00  0.00     0.039 A 
ATOM      3  C2  UNL d   1       0.494   0.444  -0.074  0.00  0.00    -0.080 A 
ATOM      4  C3  UNL d   1       1.727   0.855   0.425  0.00  0.00     0.150 A 
ATOM      5  C4  UNL d   1       1.956   2.189   0.748  0.00  0.00    -0.007 A 
ATOM      6  C5  UNL d   1       0.941   3.127   0.569  0.00  0.00     0.039 A 
ENDROOT
BRANCH   4   7
ATOM      7  O   UNL d   1       2.750  -0.026   0.611  0.00  0.00    -0.526 OA
ATOM      8  H5  UNL d   1       2.457  -0.905   0.318  0.00  0.00     0.418 HD
ENDBRANCH   4   7
TORSDOF 1
ENDMDL
