MODEL 1
REMARK minimizedAffinity -3.18633366
REMARK minimizedRMSD -1
REMARK  1 active torsions:
REMARK  status: ('A' for Active; 'I' for Inactive)
REMARK    1  A    between atoms: C3_4  and  O_7 
ROOT
ATOM      1  C   UNL d   1      -0.286  -1.602   0.096  0.00  0.00    -0.033 A 
ATOM      2  C1  UNL d   1      -1.475  -1.063   0.591  0.00  0.00     0.039 A 
ATOM      3  C2  UNL d   1      -1.635   0.322   0.672  0.00  0.00    -0.080 A 
ATOM      4  C3  UNL d   1      -0.601   1.155   0.253  0.00  0.00     0.150 A 
ATOM      5  C4  UNL d   1       0.585   0.624  -0.244  0.00  0.00    -0.007 A 
ATOM      6  C5  UNL d   1       0.744  -0.759  -0.323  0.00  0.00     0.039 A 
ENDROOT
BRANCH   4   7
ATOM      7  O   UNL d   1      -0.709   2.512   0.317  0.00  0.00    -0.526 OA
ATOM      8  H5  UNL d   1      -1.570   2.734   0.708  0.00  0.00     0.418 HD
ENDBRANCH   4   7
TORSDOF 1
ENDMDL
