MODEL 1
REMARK minimizedAffinity -3.94648147
REMARK minimizedRMSD -1
REMARK  1 active torsions:
REMARK  status: ('A' for Active; 'I' for Inactive)
REMARK    1  A    between atoms: C3_4  and  O_7 
ROOT
ATOM      1  C   UNL d   1      -0.457  -0.512   0.378  0.00  0.00    -0.033 A 
ATOM      2  C1  UNL d   1      -1.588   0.291   0.537  0.00  0.00     0.039 A 
ATOM      3  C2  UNL d   1      -1.495   1.674   0.361  0.00  0.00    -0.080 A 
ATOM      4  C3  UNL d   1      -0.268   2.239   0.027  0.00  0.00     0.150 A 
ATOM      5  C4  UNL d   1       0.862   1.444  -0.137  0.00  0.00    -0.007 A 
ATOM      6  C5  UNL d   1       0.767   0.064   0.040  0.00  0.00     0.039 A 
ENDROOT
BRANCH   4   7
ATOM      7  O   UNL d   1      -0.127   3.583  -0.150  0.00  0.00    -0.526 OA
ATOM      8  H5  UNL d   1      -0.983   4.008   0.023  0.00  0.00     0.418 HD
ENDBRANCH   4   7
TORSDOF 1
ENDMDL
