MODEL 1
REMARK minimizedAffinity -4.06032181
REMARK minimizedRMSD -1
REMARK  1 active torsions:
REMARK  status: ('A' for Active; 'I' for Inactive)
REMARK    1  A    between atoms: C3_4  and  O_7 
ROOT
ATOM      1  C   UNL d   1      -0.640  -1.157   0.170  0.00  0.00    -0.033 A 
ATOM      2  C1  UNL d   1      -1.842  -0.496   0.428  0.00  0.00     0.039 A 
ATOM      3  C2  UNL d   1      -1.860   0.891   0.582  0.00  0.00    -0.080 A 
ATOM      4  C3  UNL d   1      -0.670   1.606   0.474  0.00  0.00     0.150 A 
ATOM      5  C4  UNL d   1       0.531   0.955   0.213  0.00  0.00    -0.007 A 
ATOM      6  C5  UNL d   1       0.547  -0.431   0.061  0.00  0.00     0.039 A 
ENDROOT
BRANCH   4   7
ATOM      7  O   UNL d   1      -0.636   2.961   0.621  0.00  0.00    -0.526 OA
ATOM      8  H5  UNL d   1      -1.534   3.270   0.827  0.00  0.00     0.418 HD
ENDBRANCH   4   7
TORSDOF 1
ENDMDL
