MODEL 1
REMARK minimizedAffinity -3.33652186
REMARK minimizedRMSD -1
REMARK  1 active torsions:
REMARK  status: ('A' for Active; 'I' for Inactive)
REMARK    1  A    between atoms: C3_4  and  O_7 
ROOT
ATOM      1  C   UNL d   1      -0.924  -3.685  -2.614  0.00  0.00    -0.033 A 
ATOM      2  C1  UNL d   1      -0.503  -2.579  -3.355  0.00  0.00     0.039 A 
ATOM      3  C2  UNL d   1      -0.368  -1.334  -2.739  0.00  0.00    -0.080 A 
ATOM      4  C3  UNL d   1      -0.656  -1.207  -1.383  0.00  0.00     0.150 A 
ATOM      5  C4  UNL d   1      -1.072  -2.305  -0.638  0.00  0.00    -0.007 A 
ATOM      6  C5  UNL d   1      -1.208  -3.548  -1.254  0.00  0.00     0.039 A 
ENDROOT
BRANCH   4   7
ATOM      7  O   UNL d   1      -0.543  -0.011  -0.740  0.00  0.00    -0.526 OA
ATOM      8  H5  UNL d   1      -0.274   0.663  -1.386  0.00  0.00     0.418 HD
ENDBRANCH   4   7
TORSDOF 1
ENDMDL
