MODEL 1
REMARK minimizedAffinity -5.3764658
REMARK minimizedRMSD -1
REMARK  1 active torsions:
REMARK  status: ('A' for Active; 'I' for Inactive)
REMARK    1  A    between atoms: C3_4  and  O_7 
ROOT
ATOM      1  C   UNL d   1      -0.402  -0.044   0.320  0.00  0.00    -0.033 A 
ATOM      2  C1  UNL d   1       0.672   0.462  -0.416  0.00  0.00     0.039 A 
ATOM      3  C2  UNL d   1       0.848   1.842  -0.538  0.00  0.00    -0.080 A 
ATOM      4  C3  UNL d   1      -0.054   2.703   0.081  0.00  0.00     0.150 A 
ATOM      5  C4  UNL d   1      -1.123   2.206   0.819  0.00  0.00    -0.007 A 
ATOM      6  C5  UNL d   1      -1.298   0.828   0.939  0.00  0.00     0.039 A 
ENDROOT
BRANCH   4   7
ATOM      7  O   UNL d   1       0.074   4.057  -0.014  0.00  0.00    -0.526 OA
ATOM      8  H5  UNL d   1       0.841   4.255  -0.577  0.00  0.00     0.418 HD
ENDBRANCH   4   7
TORSDOF 1
ENDMDL
