MODEL 1
REMARK minimizedAffinity -4.76092243
REMARK minimizedRMSD -1
REMARK  1 active torsions:
REMARK  status: ('A' for Active; 'I' for Inactive)
REMARK    1  A    between atoms: C3_4  and  O_7 
ROOT
ATOM      1  C   UNL d   1       0.314   3.048   0.023  0.00  0.00    -0.033 A 
ATOM      2  C1  UNL d   1      -0.912   2.561   0.481  0.00  0.00     0.039 A 
ATOM      3  C2  UNL d   1      -1.172   1.190   0.461  0.00  0.00    -0.080 A 
ATOM      4  C3  UNL d   1      -0.198   0.317  -0.017  0.00  0.00     0.150 A 
ATOM      5  C4  UNL d   1       1.027   0.794  -0.471  0.00  0.00    -0.007 A 
ATOM      6  C5  UNL d   1       1.284   2.164  -0.452  0.00  0.00     0.039 A 
ENDROOT
BRANCH   4   7
ATOM      7  O   UNL d   1      -0.408  -1.030  -0.060  0.00  0.00    -0.526 OA
ATOM      8  H5  UNL d   1      -1.308  -1.212   0.259  0.00  0.00     0.418 HD
ENDBRANCH   4   7
TORSDOF 1
ENDMDL
