MODEL 1
REMARK minimizedAffinity -5.14472294
REMARK minimizedRMSD -1
REMARK  1 active torsions:
REMARK  status: ('A' for Active; 'I' for Inactive)
REMARK    1  A    between atoms: C3_4  and  O_7 
ROOT
ATOM      1  C   UNL d   1       1.551   2.962   1.026  0.00  0.00    -0.033 A 
ATOM      2  C1  UNL d   1       2.480   1.966   0.718  0.00  0.00     0.039 A 
ATOM      3  C2  UNL d   1       2.043   0.707   0.302  0.00  0.00    -0.080 A 
ATOM      4  C3  UNL d   1       0.678   0.457   0.198  0.00  0.00     0.150 A 
ATOM      5  C4  UNL d   1      -0.253   1.446   0.500  0.00  0.00    -0.007 A 
ATOM      6  C5  UNL d   1       0.185   2.702   0.916  0.00  0.00     0.039 A 
ENDROOT
BRANCH   4   7
ATOM      7  O   UNL d   1       0.203  -0.758  -0.199  0.00  0.00    -0.526 OA
ATOM      8  H5  UNL d   1       0.960  -1.350  -0.346  0.00  0.00     0.418 HD
ENDBRANCH   4   7
TORSDOF 1
ENDMDL
