MODEL 1
REMARK minimizedAffinity -2.59393215
REMARK minimizedRMSD -1
REMARK  1 active torsions:
REMARK  status: ('A' for Active; 'I' for Inactive)
REMARK    1  A    between atoms: C3_4  and  O_7 
ROOT
ATOM      1  C   UNL d   1      -0.877   1.077   0.627  0.00  0.00    -0.033 A 
ATOM      2  C1  UNL d   1      -0.204   2.235   1.022  0.00  0.00     0.039 A 
ATOM      3  C2  UNL d   1       1.189   2.235   1.121  0.00  0.00    -0.080 A 
ATOM      4  C3  UNL d   1       1.895   1.074   0.820  0.00  0.00     0.150 A 
ATOM      5  C4  UNL d   1       1.232  -0.082   0.423  0.00  0.00    -0.007 A 
ATOM      6  C5  UNL d   1      -0.159  -0.081   0.326  0.00  0.00     0.039 A 
ENDROOT
BRANCH   4   7
ATOM      7  O   UNL d   1       3.255   1.025   0.906  0.00  0.00    -0.526 OA
ATOM      8  H5  UNL d   1       3.575   1.888   1.221  0.00  0.00     0.418 HD
ENDBRANCH   4   7
TORSDOF 1
ENDMDL
