MODEL 1
REMARK minimizedAffinity -0.986558914
REMARK minimizedRMSD -1
REMARK  1 active torsions:
REMARK  status: ('A' for Active; 'I' for Inactive)
REMARK    1  A    between atoms: C3_4  and  O_7 
ROOT
ATOM      1  C   UNL d   1       0.837  -1.373   0.247  0.00  0.00    -0.033 A 
ATOM      2  C1  UNL d   1      -0.529  -1.084   0.291  0.00  0.00     0.039 A 
ATOM      3  C2  UNL d   1      -0.960   0.239   0.403  0.00  0.00    -0.080 A 
ATOM      4  C3  UNL d   1      -0.018   1.262   0.468  0.00  0.00     0.150 A 
ATOM      5  C4  UNL d   1       1.343   0.982   0.420  0.00  0.00    -0.007 A 
ATOM      6  C5  UNL d   1       1.772  -0.340   0.310  0.00  0.00     0.039 A 
ENDROOT
BRANCH   4   7
ATOM      7  O   UNL d   1      -0.392   2.569   0.581  0.00  0.00    -0.526 OA
ATOM      8  H5  UNL d   1      -1.361   2.608   0.631  0.00  0.00     0.418 HD
ENDBRANCH   4   7
TORSDOF 1
ENDMDL
