MODEL 1
REMARK minimizedAffinity 4.31790066
REMARK minimizedRMSD -1
REMARK  1 active torsions:
REMARK  status: ('A' for Active; 'I' for Inactive)
REMARK    1  A    between atoms: C3_4  and  O_7 
ROOT
ATOM      1  C   UNL d   1      -0.217  -4.147  -3.051  0.00  0.00    -0.033 A 
ATOM      2  C1  UNL d   1      -0.974  -3.936  -1.897  0.00  0.00     0.039 A 
ATOM      3  C2  UNL d   1      -0.544  -3.020  -0.935  0.00  0.00    -0.080 A 
ATOM      4  C3  UNL d   1       0.643  -2.322  -1.140  0.00  0.00     0.150 A 
ATOM      5  C4  UNL d   1       1.400  -2.524  -2.289  0.00  0.00    -0.007 A 
ATOM      6  C5  UNL d   1       0.969  -3.440  -3.248  0.00  0.00     0.039 A 
ENDROOT
BRANCH   4   7
ATOM      7  O   UNL d   1       1.106  -1.421  -0.227  0.00  0.00    -0.526 OA
ATOM      8  H5  UNL d   1       0.495  -1.406   0.528  0.00  0.00     0.418 HD
ENDBRANCH   4   7
TORSDOF 1
ENDMDL
