MODEL 1
REMARK minimizedAffinity 2.85631323
REMARK minimizedRMSD -1
REMARK  1 active torsions:
REMARK  status: ('A' for Active; 'I' for Inactive)
REMARK    1  A    between atoms: C3_4  and  O_7 
ROOT
ATOM      1  C   UNL d   1      -0.645   3.739   0.454  0.00  0.00    -0.033 A 
ATOM      2  C1  UNL d   1       0.261   4.016  -0.572  0.00  0.00     0.039 A 
ATOM      3  C2  UNL d   1       1.356   3.176  -0.784  0.00  0.00    -0.080 A 
ATOM      4  C3  UNL d   1       1.533   2.064   0.035  0.00  0.00     0.150 A 
ATOM      5  C4  UNL d   1       0.632   1.780   1.056  0.00  0.00    -0.007 A 
ATOM      6  C5  UNL d   1      -0.460   2.620   1.267  0.00  0.00     0.039 A 
ENDROOT
BRANCH   4   7
ATOM      7  O   UNL d   1       2.589   1.218  -0.131  0.00  0.00    -0.526 OA
ATOM      8  H5  UNL d   1       3.143   1.555  -0.855  0.00  0.00     0.418 HD
ENDBRANCH   4   7
TORSDOF 1
ENDMDL
