MODEL 1
REMARK minimizedAffinity -1.6931119
REMARK minimizedRMSD -1
REMARK  1 active torsions:
REMARK  status: ('A' for Active; 'I' for Inactive)
REMARK    1  A    between atoms: C3_4  and  O_7 
ROOT
ATOM      1  C   UNL d   1      -0.933   2.879   0.360  0.00  0.00    -0.033 A 
ATOM      2  C1  UNL d   1      -1.793   2.103  -0.421  0.00  0.00     0.039 A 
ATOM      3  C2  UNL d   1      -1.486   0.766  -0.682  0.00  0.00    -0.080 A 
ATOM      4  C3  UNL d   1      -0.319   0.218  -0.158  0.00  0.00     0.150 A 
ATOM      5  C4  UNL d   1       0.540   0.984   0.623  0.00  0.00    -0.007 A 
ATOM      6  C5  UNL d   1       0.232   2.319   0.883  0.00  0.00     0.039 A 
ENDROOT
BRANCH   4   7
ATOM      7  O   UNL d   1       0.026  -1.080  -0.390  0.00  0.00    -0.526 OA
ATOM      8  H5  UNL d   1      -0.646  -1.478  -0.968  0.00  0.00     0.418 HD
ENDBRANCH   4   7
TORSDOF 1
ENDMDL
