MODEL 1
REMARK minimizedAffinity 5.49201584
REMARK minimizedRMSD -1
REMARK  0 active torsions:
REMARK  status: ('A' for Active; 'I' for Inactive)
ROOT
ATOM      1  C   UNL d   1       0.085  -1.882   0.603  0.00  0.00     0.124 A 
ATOM      2  C1  UNL d   1      -0.367  -2.549   1.733  0.00  0.00     0.062 A 
ATOM      3  C2  UNL d   1       0.496  -3.368   2.455  0.00  0.00     0.162 A 
ATOM      4  C3  UNL d   1       1.822  -3.524   2.049  0.00  0.00    -0.034 A 
ATOM      5  C4  UNL d   1       2.269  -2.850   0.911  0.00  0.00     0.162 A 
ATOM      6  C5  UNL d   1       1.402  -2.033   0.193  0.00  0.00     0.062 A 
ATOM      7  F   UNL d   1       1.841  -1.389  -0.898  0.00  0.00    -0.097 F 
ATOM      8  F1  UNL d   1       3.537  -2.977   0.494  0.00  0.00    -0.096 F 
ATOM      9  I   UNL d   1       3.116  -4.747   3.126  0.00  0.00    -0.060 I 
ATOM     10  F2  UNL d   1       0.032  -4.000   3.542  0.00  0.00    -0.096 F 
ATOM     11  F3  UNL d   1      -1.640  -2.405   2.130  0.00  0.00    -0.097 F 
ATOM     12  F4  UNL d   1      -0.748  -1.095  -0.090  0.00  0.00    -0.092 F 
ENDROOT
TORSDOF 0
ENDMDL
