MODEL 1
REMARK minimizedAffinity 6.95395088
REMARK minimizedRMSD -1
REMARK  0 active torsions:
REMARK  status: ('A' for Active; 'I' for Inactive)
ROOT
ATOM      1  C   UNL d   1      -0.185  -2.639   1.896  0.00  0.00     0.124 A 
ATOM      2  C1  UNL d   1      -0.139  -1.259   2.038  0.00  0.00     0.062 A 
ATOM      3  C2  UNL d   1       0.838  -0.520   1.378  0.00  0.00     0.162 A 
ATOM      4  C3  UNL d   1       1.777  -1.158   0.568  0.00  0.00    -0.034 A 
ATOM      5  C4  UNL d   1       1.725  -2.547   0.431  0.00  0.00     0.162 A 
ATOM      6  C5  UNL d   1       0.747  -3.281   1.093  0.00  0.00     0.062 A 
ATOM      7  F   UNL d   1       0.705  -4.614   0.954  0.00  0.00    -0.097 F 
ATOM      8  F1  UNL d   1       2.613  -3.193  -0.340  0.00  0.00    -0.096 F 
ATOM      9  I   UNL d   1       3.240  -0.056  -0.420  0.00  0.00    -0.060 I 
ATOM     10  F2  UNL d   1       0.858   0.813   1.534  0.00  0.00    -0.096 F 
ATOM     11  F3  UNL d   1      -1.038  -0.637   2.814  0.00  0.00    -0.097 F 
ATOM     12  F4  UNL d   1      -1.125  -3.349   2.533  0.00  0.00    -0.092 F 
ENDROOT
TORSDOF 0
ENDMDL
