MODEL 1
REMARK minimizedAffinity 8.19881439
REMARK minimizedRMSD -1
REMARK  0 active torsions:
REMARK  status: ('A' for Active; 'I' for Inactive)
ROOT
ATOM      1  C   UNL d   1      -0.090  -1.751   0.970  0.00  0.00     0.124 A 
ATOM      2  C1  UNL d   1      -0.474  -3.065   1.198  0.00  0.00     0.062 A 
ATOM      3  C2  UNL d   1       0.433  -4.103   1.002  0.00  0.00     0.162 A 
ATOM      4  C3  UNL d   1       1.733  -3.831   0.576  0.00  0.00    -0.034 A 
ATOM      5  C4  UNL d   1       2.111  -2.507   0.348  0.00  0.00     0.162 A 
ATOM      6  C5  UNL d   1       1.201  -1.473   0.545  0.00  0.00     0.062 A 
ATOM      7  F   UNL d   1       1.573  -0.204   0.323  0.00  0.00    -0.097 F 
ATOM      8  F1  UNL d   1       3.353  -2.210  -0.062  0.00  0.00    -0.096 F 
ATOM      9  I   UNL d   1       3.091  -5.380   0.282  0.00  0.00    -0.060 I 
ATOM     10  F2  UNL d   1       0.035  -5.364   1.231  0.00  0.00    -0.096 F 
ATOM     11  F3  UNL d   1      -1.721  -3.337   1.608  0.00  0.00    -0.097 F 
ATOM     12  F4  UNL d   1      -0.965  -0.754   1.158  0.00  0.00    -0.092 F 
ENDROOT
TORSDOF 0
ENDMDL
