MODEL 1
REMARK minimizedAffinity 3.5819521
REMARK minimizedRMSD -1
REMARK  0 active torsions:
REMARK  status: ('A' for Active; 'I' for Inactive)
ROOT
ATOM      1  C   UNL d   1       0.111  -4.460   1.917  0.00  0.00     0.124 A 
ATOM      2  C1  UNL d   1      -0.643  -3.371   2.334  0.00  0.00     0.062 A 
ATOM      3  C2  UNL d   1      -0.259  -2.079   1.986  0.00  0.00     0.162 A 
ATOM      4  C3  UNL d   1       0.885  -1.869   1.215  0.00  0.00    -0.034 A 
ATOM      5  C4  UNL d   1       1.639  -2.968   0.801  0.00  0.00     0.162 A 
ATOM      6  C5  UNL d   1       1.251  -4.257   1.151  0.00  0.00     0.062 A 
ATOM      7  F   UNL d   1       1.981  -5.307   0.748  0.00  0.00    -0.097 F 
ATOM      8  F1  UNL d   1       2.744  -2.801   0.060  0.00  0.00    -0.096 F 
ATOM      9  I   UNL d   1       1.462   0.062   0.693  0.00  0.00    -0.060 I 
ATOM     10  F2  UNL d   1      -1.006  -1.047   2.402  0.00  0.00    -0.096 F 
ATOM     11  F3  UNL d   1      -1.744  -3.564   3.074  0.00  0.00    -0.097 F 
ATOM     12  F4  UNL d   1      -0.260  -5.702   2.254  0.00  0.00    -0.092 F 
ENDROOT
TORSDOF 0
ENDMDL
