MODEL 1
REMARK minimizedAffinity 21.5921383
REMARK minimizedRMSD -1
REMARK  0 active torsions:
REMARK  status: ('A' for Active; 'I' for Inactive)
ROOT
ATOM      1  C   UNL d   1       0.275  -2.268   1.397  0.00  0.00     0.124 A 
ATOM      2  C1  UNL d   1       1.416  -1.670   0.881  0.00  0.00     0.062 A 
ATOM      3  C2  UNL d   1       2.458  -2.454   0.393  0.00  0.00     0.162 A 
ATOM      4  C3  UNL d   1       2.363  -3.846   0.418  0.00  0.00    -0.034 A 
ATOM      5  C4  UNL d   1       1.212  -4.440   0.940  0.00  0.00     0.162 A 
ATOM      6  C5  UNL d   1       0.174  -3.651   1.426  0.00  0.00     0.062 A 
ATOM      7  F   UNL d   1      -0.928  -4.231   1.924  0.00  0.00    -0.097 F 
ATOM      8  F1  UNL d   1       1.087  -5.774   0.979  0.00  0.00    -0.096 F 
ATOM      9  I   UNL d   1       3.918  -5.022  -0.309  0.00  0.00    -0.060 I 
ATOM     10  F2  UNL d   1       3.549  -1.850  -0.100  0.00  0.00    -0.096 F 
ATOM     11  F3  UNL d   1       1.517  -0.333   0.852  0.00  0.00    -0.097 F 
ATOM     12  F4  UNL d   1      -0.725  -1.511   1.866  0.00  0.00    -0.092 F 
ENDROOT
TORSDOF 0
ENDMDL
