MODEL 1
REMARK minimizedAffinity 10.7051001
REMARK minimizedRMSD -1
REMARK  0 active torsions:
REMARK  status: ('A' for Active; 'I' for Inactive)
ROOT
ATOM      1  C   UNL d   1      -0.486  -1.709   2.050  0.00  0.00     0.124 A 
ATOM      2  C1  UNL d   1       0.531  -1.009   1.415  0.00  0.00     0.062 A 
ATOM      3  C2  UNL d   1       1.496  -1.690   0.679  0.00  0.00     0.162 A 
ATOM      4  C3  UNL d   1       1.449  -3.080   0.573  0.00  0.00    -0.034 A 
ATOM      5  C4  UNL d   1       0.424  -3.778   1.215  0.00  0.00     0.162 A 
ATOM      6  C5  UNL d   1      -0.538  -3.092   1.949  0.00  0.00     0.062 A 
ATOM      7  F   UNL d   1      -1.520  -3.770   2.562  0.00  0.00    -0.097 F 
ATOM      8  F1  UNL d   1       0.349  -5.114   1.133  0.00  0.00    -0.096 F 
ATOM      9  I   UNL d   1       2.890  -4.103  -0.527  0.00  0.00    -0.060 I 
ATOM     10  F2  UNL d   1       2.467  -0.988   0.076  0.00  0.00    -0.096 F 
ATOM     11  F3  UNL d   1       0.584   0.327   1.511  0.00  0.00    -0.097 F 
ATOM     12  F4  UNL d   1      -1.412  -1.051   2.758  0.00  0.00    -0.092 F 
ENDROOT
TORSDOF 0
ENDMDL
