MODEL 1
REMARK minimizedAffinity 8.42028713
REMARK minimizedRMSD -1
REMARK  0 active torsions:
REMARK  status: ('A' for Active; 'I' for Inactive)
ROOT
ATOM      1  C   UNL d   1      -0.209  -2.073   2.115  0.00  0.00     0.124 A 
ATOM      2  C1  UNL d   1       0.745  -1.351   1.413  0.00  0.00     0.062 A 
ATOM      3  C2  UNL d   1       1.770  -2.011   0.742  0.00  0.00     0.162 A 
ATOM      4  C3  UNL d   1       1.846  -3.404   0.769  0.00  0.00    -0.034 A 
ATOM      5  C4  UNL d   1       0.883  -4.124   1.479  0.00  0.00     0.162 A 
ATOM      6  C5  UNL d   1      -0.139  -3.459   2.148  0.00  0.00     0.062 A 
ATOM      7  F   UNL d   1      -1.060  -4.159   2.826  0.00  0.00    -0.097 F 
ATOM      8  F1  UNL d   1       0.926  -5.464   1.526  0.00  0.00    -0.096 F 
ATOM      9  I   UNL d   1       3.377  -4.396  -0.233  0.00  0.00    -0.060 I 
ATOM     10  F2  UNL d   1       2.678  -1.287   0.071  0.00  0.00    -0.096 F 
ATOM     11  F3  UNL d   1       0.680  -0.012   1.380  0.00  0.00    -0.097 F 
ATOM     12  F4  UNL d   1      -1.193  -1.435   2.761  0.00  0.00    -0.092 F 
ENDROOT
TORSDOF 0
ENDMDL
