MODEL 1
REMARK minimizedAffinity -2.31305122
REMARK minimizedRMSD -1
REMARK  0 active torsions:
REMARK  status: ('A' for Active; 'I' for Inactive)
ROOT
ATOM      1  C   UNL d   1       5.837  -2.381   2.392  0.00  0.00     0.124 A 
ATOM      2  C1  UNL d   1       5.733  -2.040   3.733  0.00  0.00     0.062 A 
ATOM      3  C2  UNL d   1       5.666  -3.034   4.705  0.00  0.00     0.162 A 
ATOM      4  C3  UNL d   1       5.703  -4.380   4.339  0.00  0.00    -0.034 A 
ATOM      5  C4  UNL d   1       5.806  -4.715   2.988  0.00  0.00     0.162 A 
ATOM      6  C5  UNL d   1       5.873  -3.718   2.020  0.00  0.00     0.062 A 
ATOM      7  F   UNL d   1       5.974  -4.049   0.725  0.00  0.00    -0.097 F 
ATOM      8  F1  UNL d   1       5.845  -5.999   2.601  0.00  0.00    -0.096 F 
ATOM      9  I   UNL d   1       5.602  -5.869   5.789  0.00  0.00    -0.060 I 
ATOM     10  F2  UNL d   1       5.566  -2.675   5.993  0.00  0.00    -0.096 F 
ATOM     11  F3  UNL d   1       5.697  -0.749   4.094  0.00  0.00    -0.097 F 
ATOM     12  F4  UNL d   1       5.901  -1.423   1.458  0.00  0.00    -0.092 F 
ENDROOT
TORSDOF 0
ENDMDL
