MODEL 1
REMARK minimizedAffinity 0.470129788
REMARK minimizedRMSD -1
REMARK  0 active torsions:
REMARK  status: ('A' for Active; 'I' for Inactive)
ROOT
ATOM      1  C   UNL d   1       5.902  -2.398   2.368  0.00  0.00     0.124 A 
ATOM      2  C1  UNL d   1       5.864  -1.980   3.691  0.00  0.00     0.062 A 
ATOM      3  C2  UNL d   1       5.776  -2.915   4.718  0.00  0.00     0.162 A 
ATOM      4  C3  UNL d   1       5.727  -4.279   4.427  0.00  0.00    -0.034 A 
ATOM      5  C4  UNL d   1       5.765  -4.691   3.094  0.00  0.00     0.162 A 
ATOM      6  C5  UNL d   1       5.853  -3.752   2.071  0.00  0.00     0.062 A 
ATOM      7  F   UNL d   1       5.889  -4.158   0.793  0.00  0.00    -0.097 F 
ATOM      8  F1  UNL d   1       5.719  -5.994   2.778  0.00  0.00    -0.096 F 
ATOM      9  I   UNL d   1       5.595  -5.680   5.960  0.00  0.00    -0.060 I 
ATOM     10  F2  UNL d   1       5.741  -2.483   5.988  0.00  0.00    -0.096 F 
ATOM     11  F3  UNL d   1       5.910  -0.672   3.982  0.00  0.00    -0.097 F 
ATOM     12  F4  UNL d   1       5.986  -1.496   1.382  0.00  0.00    -0.092 F 
ENDROOT
TORSDOF 0
ENDMDL
