MODEL 1
REMARK minimizedAffinity 7.0689497
REMARK minimizedRMSD -1
REMARK  0 active torsions:
REMARK  status: ('A' for Active; 'I' for Inactive)
ROOT
ATOM      1  C   UNL d   1       5.977  -2.242   1.680  0.00  0.00     0.124 A 
ATOM      2  C1  UNL d   1       5.988  -3.629   1.740  0.00  0.00     0.062 A 
ATOM      3  C2  UNL d   1       5.990  -4.276   2.972  0.00  0.00     0.162 A 
ATOM      4  C3  UNL d   1       5.980  -3.537   4.155  0.00  0.00    -0.034 A 
ATOM      5  C4  UNL d   1       5.970  -2.143   4.087  0.00  0.00     0.162 A 
ATOM      6  C5  UNL d   1       5.968  -1.501   2.852  0.00  0.00     0.062 A 
ATOM      7  F   UNL d   1       5.958  -0.161   2.796  0.00  0.00    -0.097 F 
ATOM      8  F1  UNL d   1       5.961  -1.401   5.204  0.00  0.00    -0.096 F 
ATOM      9  I   UNL d   1       5.983  -4.501   6.000  0.00  0.00    -0.060 I 
ATOM     10  F2  UNL d   1       6.000  -5.617   3.000  0.00  0.00    -0.096 F 
ATOM     11  F3  UNL d   1       5.997  -4.348   0.608  0.00  0.00    -0.097 F 
ATOM     12  F4  UNL d   1       5.976  -1.622   0.493  0.00  0.00    -0.092 F 
ENDROOT
TORSDOF 0
ENDMDL
