MODEL 1
REMARK minimizedAffinity 3.82969236
REMARK minimizedRMSD -1
REMARK  0 active torsions:
REMARK  status: ('A' for Active; 'I' for Inactive)
ROOT
ATOM      1  C   UNL d   1       2.746  -3.190   2.396  0.00  0.00     0.124 A 
ATOM      2  C1  UNL d   1       3.934  -3.785   1.996  0.00  0.00     0.062 A 
ATOM      3  C2  UNL d   1       4.859  -4.209   2.945  0.00  0.00     0.162 A 
ATOM      4  C3  UNL d   1       4.600  -4.041   4.305  0.00  0.00    -0.034 A 
ATOM      5  C4  UNL d   1       3.403  -3.441   4.701  0.00  0.00     0.162 A 
ATOM      6  C5  UNL d   1       2.481  -3.019   3.748  0.00  0.00     0.062 A 
ATOM      7  F   UNL d   1       1.334  -2.444   4.137  0.00  0.00    -0.097 F 
ATOM      8  F1  UNL d   1       3.121  -3.264   6.000  0.00  0.00    -0.096 F 
ATOM      9  I   UNL d   1       5.981  -4.674   5.728  0.00  0.00    -0.060 I 
ATOM     10  F2  UNL d   1       5.999  -4.781   2.529  0.00  0.00    -0.096 F 
ATOM     11  F3  UNL d   1       4.193  -3.950   0.691  0.00  0.00    -0.097 F 
ATOM     12  F4  UNL d   1       1.858  -2.782   1.481  0.00  0.00    -0.092 F 
ENDROOT
TORSDOF 0
ENDMDL
