MODEL 1
REMARK minimizedAffinity 4.14753151
REMARK minimizedRMSD -1
REMARK  0 active torsions:
REMARK  status: ('A' for Active; 'I' for Inactive)
ROOT
ATOM      1  C   UNL d   1       5.992  -2.386   1.864  0.00  0.00     0.124 A 
ATOM      2  C1  UNL d   1       5.993  -3.772   1.782  0.00  0.00     0.062 A 
ATOM      3  C2  UNL d   1       5.994  -4.542   2.941  0.00  0.00     0.162 A 
ATOM      4  C3  UNL d   1       5.992  -3.928   4.194  0.00  0.00    -0.034 A 
ATOM      5  C4  UNL d   1       5.992  -2.534   4.268  0.00  0.00     0.162 A 
ATOM      6  C5  UNL d   1       5.991  -1.769   3.107  0.00  0.00     0.062 A 
ATOM      7  F   UNL d   1       5.990  -0.430   3.188  0.00  0.00    -0.097 F 
ATOM      8  F1  UNL d   1       5.990  -1.911   5.456  0.00  0.00    -0.096 F 
ATOM      9  I   UNL d   1       5.994  -5.075   5.930  0.00  0.00    -0.060 I 
ATOM     10  F2  UNL d   1       5.996  -5.878   2.832  0.00  0.00    -0.096 F 
ATOM     11  F3  UNL d   1       5.995  -4.371   0.582  0.00  0.00    -0.097 F 
ATOM     12  F4  UNL d   1       5.992  -1.648   0.747  0.00  0.00    -0.092 F 
ENDROOT
TORSDOF 0
ENDMDL
