MODEL 1
REMARK minimizedAffinity 5.71641779
REMARK minimizedRMSD -1
REMARK  0 active torsions:
REMARK  status: ('A' for Active; 'I' for Inactive)
ROOT
ATOM      1  C   UNL d   1      -0.264  -2.696  -1.052  0.00  0.00     0.124 A 
ATOM      2  C1  UNL d   1      -1.643  -2.842  -0.987  0.00  0.00     0.062 A 
ATOM      3  C2  UNL d   1      -2.373  -2.169  -0.012  0.00  0.00     0.162 A 
ATOM      4  C3  UNL d   1      -1.726  -1.342   0.907  0.00  0.00    -0.034 A 
ATOM      5  C4  UNL d   1      -0.339  -1.201   0.836  0.00  0.00     0.162 A 
ATOM      6  C5  UNL d   1       0.386  -1.876  -0.140  0.00  0.00     0.062 A 
ATOM      7  F   UNL d   1       1.718  -1.734  -0.201  0.00  0.00    -0.097 F 
ATOM      8  F1  UNL d   1       0.314  -0.415   1.704  0.00  0.00    -0.096 F 
ATOM      9  I   UNL d   1      -2.815  -0.334   2.366  0.00  0.00    -0.060 I 
ATOM     10  F2  UNL d   1      -3.705  -2.329   0.027  0.00  0.00    -0.096 F 
ATOM     11  F3  UNL d   1      -2.274  -3.634  -1.866  0.00  0.00    -0.097 F 
ATOM     12  F4  UNL d   1       0.436  -3.345  -1.990  0.00  0.00    -0.092 F 
ENDROOT
TORSDOF 0
ENDMDL
