MODEL 1
REMARK minimizedAffinity 7.44896603
REMARK minimizedRMSD -1
REMARK  0 active torsions:
REMARK  status: ('A' for Active; 'I' for Inactive)
ROOT
ATOM      1  C   UNL d   1       5.497  -3.651   4.592  0.00  0.00     0.124 A 
ATOM      2  C1  UNL d   1       5.430  -4.820   3.847  0.00  0.00     0.062 A 
ATOM      3  C2  UNL d   1       5.549  -4.775   2.461  0.00  0.00     0.162 A 
ATOM      4  C3  UNL d   1       5.738  -3.556   1.810  0.00  0.00    -0.034 A 
ATOM      5  C4  UNL d   1       5.803  -2.384   2.566  0.00  0.00     0.162 A 
ATOM      6  C5  UNL d   1       5.683  -2.435   3.951  0.00  0.00     0.062 A 
ATOM      7  F   UNL d   1       5.748  -1.304   4.669  0.00  0.00    -0.097 F 
ATOM      8  F1  UNL d   1       5.983  -1.195   1.973  0.00  0.00    -0.096 F 
ATOM      9  I   UNL d   1       5.916  -3.484  -0.262  0.00  0.00    -0.060 I 
ATOM     10  F2  UNL d   1       5.481  -5.921   1.767  0.00  0.00    -0.096 F 
ATOM     11  F3  UNL d   1       5.250  -5.997   4.464  0.00  0.00    -0.097 F 
ATOM     12  F4  UNL d   1       5.382  -3.698   5.925  0.00  0.00    -0.092 F 
ENDROOT
TORSDOF 0
ENDMDL
