MODEL 1
REMARK minimizedAffinity 8.27483559
REMARK minimizedRMSD -1
REMARK  0 active torsions:
REMARK  status: ('A' for Active; 'I' for Inactive)
ROOT
ATOM      1  C   UNL d   1       6.000  -1.667   2.373  0.00  0.00     0.124 A 
ATOM      2  C1  UNL d   1       6.000  -1.279   3.705  0.00  0.00     0.062 A 
ATOM      3  C2  UNL d   1       5.999  -2.239   4.713  0.00  0.00     0.162 A 
ATOM      4  C3  UNL d   1       6.000  -3.596   4.393  0.00  0.00    -0.034 A 
ATOM      5  C4  UNL d   1       5.999  -3.978   3.050  0.00  0.00     0.162 A 
ATOM      6  C5  UNL d   1       6.000  -3.016   2.046  0.00  0.00     0.062 A 
ATOM      7  F   UNL d   1       6.000  -3.392   0.759  0.00  0.00    -0.097 F 
ATOM      8  F1  UNL d   1       6.000  -5.275   2.707  0.00  0.00    -0.096 F 
ATOM      9  I   UNL d   1       5.999  -5.034   5.898  0.00  0.00    -0.060 I 
ATOM     10  F2  UNL d   1       5.999  -1.835   5.993  0.00  0.00    -0.096 F 
ATOM     11  F3  UNL d   1       5.999   0.024   4.023  0.00  0.00    -0.097 F 
ATOM     12  F4  UNL d   1       5.999  -0.741   1.404  0.00  0.00    -0.092 F 
ENDROOT
TORSDOF 0
ENDMDL
