MODEL 1
REMARK minimizedAffinity 3.16452909
REMARK minimizedRMSD -1
REMARK  0 active torsions:
REMARK  status: ('A' for Active; 'I' for Inactive)
ROOT
ATOM      1  C   UNL d   1       5.994  -3.262   1.121  0.00  0.00     0.124 A 
ATOM      2  C1  UNL d   1       5.989  -2.156   1.960  0.00  0.00     0.062 A 
ATOM      3  C2  UNL d   1       5.982  -2.324   3.341  0.00  0.00     0.162 A 
ATOM      4  C3  UNL d   1       5.982  -3.605   3.894  0.00  0.00    -0.034 A 
ATOM      5  C4  UNL d   1       5.986  -4.713   3.044  0.00  0.00     0.162 A 
ATOM      6  C5  UNL d   1       5.993  -4.539   1.664  0.00  0.00     0.062 A 
ATOM      7  F   UNL d   1       5.999  -5.609   0.856  0.00  0.00    -0.097 F 
ATOM      8  F1  UNL d   1       5.986  -5.958   3.542  0.00  0.00    -0.096 F 
ATOM      9  I   UNL d   1       5.971  -3.861   5.959  0.00  0.00    -0.060 I 
ATOM     10  F2  UNL d   1       5.976  -1.237   4.127  0.00  0.00    -0.096 F 
ATOM     11  F3  UNL d   1       5.989  -0.921   1.437  0.00  0.00    -0.097 F 
ATOM     12  F4  UNL d   1       6.000  -3.097  -0.208  0.00  0.00    -0.092 F 
ENDROOT
TORSDOF 0
ENDMDL
