MODEL 1
REMARK minimizedAffinity 4.23238754
REMARK minimizedRMSD -1
REMARK  0 active torsions:
REMARK  status: ('A' for Active; 'I' for Inactive)
ROOT
ATOM      1  C   UNL d   1       2.916  -3.672   2.244  0.00  0.00     0.124 A 
ATOM      2  C1  UNL d   1       2.674  -4.353   3.429  0.00  0.00     0.062 A 
ATOM      3  C2  UNL d   1       3.553  -4.226   4.501  0.00  0.00     0.162 A 
ATOM      4  C3  UNL d   1       4.683  -3.415   4.393  0.00  0.00    -0.034 A 
ATOM      5  C4  UNL d   1       4.920  -2.735   3.197  0.00  0.00     0.162 A 
ATOM      6  C5  UNL d   1       4.039  -2.865   2.129  0.00  0.00     0.062 A 
ATOM      7  F   UNL d   1       4.274  -2.207   0.984  0.00  0.00    -0.097 F 
ATOM      8  F1  UNL d   1       5.997  -1.947   3.059  0.00  0.00    -0.096 F 
ATOM      9  I   UNL d   1       6.000  -3.224   5.993  0.00  0.00    -0.060 I 
ATOM     10  F2  UNL d   1       3.294  -4.895   5.634  0.00  0.00    -0.096 F 
ATOM     11  F3  UNL d   1       1.590  -5.134   3.542  0.00  0.00    -0.097 F 
ATOM     12  F4  UNL d   1       2.069  -3.796   1.214  0.00  0.00    -0.092 F 
ENDROOT
TORSDOF 0
ENDMDL
