MODEL 1
REMARK minimizedAffinity -0.237000272
REMARK minimizedRMSD -1
REMARK  0 active torsions:
REMARK  status: ('A' for Active; 'I' for Inactive)
ROOT
ATOM      1  C   UNL d   1       5.995  -3.582   1.123  0.00  0.00     0.124 A 
ATOM      2  C1  UNL d   1       5.995  -2.349   1.760  0.00  0.00     0.062 A 
ATOM      3  C2  UNL d   1       5.990  -2.280   3.150  0.00  0.00     0.162 A 
ATOM      4  C3  UNL d   1       5.986  -3.448   3.913  0.00  0.00    -0.034 A 
ATOM      5  C4  UNL d   1       5.984  -4.684   3.265  0.00  0.00     0.162 A 
ATOM      6  C5  UNL d   1       5.990  -4.748   1.875  0.00  0.00     0.062 A 
ATOM      7  F   UNL d   1       5.989  -5.940   1.261  0.00  0.00    -0.097 F 
ATOM      8  F1  UNL d   1       5.980  -5.827   3.967  0.00  0.00    -0.096 F 
ATOM      9  I   UNL d   1       5.978  -3.349   5.992  0.00  0.00    -0.060 I 
ATOM     10  F2  UNL d   1       5.990  -1.075   3.740  0.00  0.00    -0.096 F 
ATOM     11  F3  UNL d   1       5.999  -1.221   1.035  0.00  0.00    -0.097 F 
ATOM     12  F4  UNL d   1       5.999  -3.646  -0.215  0.00  0.00    -0.092 F 
ENDROOT
TORSDOF 0
ENDMDL
