MODEL 1
REMARK minimizedAffinity -2.42508864
REMARK minimizedRMSD -1
REMARK  0 active torsions:
REMARK  status: ('A' for Active; 'I' for Inactive)
ROOT
ATOM      1  C   UNL d   1       5.971  -2.451   1.731  0.00  0.00     0.124 A 
ATOM      2  C1  UNL d   1       5.961  -1.918   3.012  0.00  0.00     0.062 A 
ATOM      3  C2  UNL d   1       5.964  -2.760   4.121  0.00  0.00     0.162 A 
ATOM      4  C3  UNL d   1       5.978  -4.145   3.952  0.00  0.00    -0.034 A 
ATOM      5  C4  UNL d   1       5.987  -4.673   2.660  0.00  0.00     0.162 A 
ATOM      6  C5  UNL d   1       5.984  -3.827   1.556  0.00  0.00     0.062 A 
ATOM      7  F   UNL d   1       5.993  -4.344   0.319  0.00  0.00    -0.097 F 
ATOM      8  F1  UNL d   1       6.000  -6.000   2.463  0.00  0.00    -0.096 F 
ATOM      9  I   UNL d   1       5.982  -5.407   5.607  0.00  0.00    -0.060 I 
ATOM     10  F2  UNL d   1       5.954  -2.217   5.347  0.00  0.00    -0.096 F 
ATOM     11  F3  UNL d   1       5.948  -0.588   3.184  0.00  0.00    -0.097 F 
ATOM     12  F4  UNL d   1       5.967  -1.638   0.666  0.00  0.00    -0.092 F 
ENDROOT
TORSDOF 0
ENDMDL
