MODEL 1
REMARK minimizedAffinity 20.3088932
REMARK minimizedRMSD -1
REMARK  0 active torsions:
REMARK  status: ('A' for Active; 'I' for Inactive)
ROOT
ATOM      1  C   UNL d   1       3.408   3.381   0.250  0.00  0.00     0.124 A 
ATOM      2  C1  UNL d   1       2.316   3.363   1.106  0.00  0.00     0.062 A 
ATOM      3  C2  UNL d   1       1.403   2.313   1.054  0.00  0.00     0.162 A 
ATOM      4  C3  UNL d   1       1.579   1.273   0.141  0.00  0.00    -0.034 A 
ATOM      5  C4  UNL d   1       2.679   1.299  -0.717  0.00  0.00     0.162 A 
ATOM      6  C5  UNL d   1       3.589   2.350  -0.661  0.00  0.00     0.062 A 
ATOM      7  F   UNL d   1       4.643   2.367  -1.489  0.00  0.00    -0.097 F 
ATOM      8  F1  UNL d   1       2.878   0.315  -1.607  0.00  0.00    -0.096 F 
ATOM      9  I   UNL d   1       0.216  -0.298   0.059  0.00  0.00    -0.060 I 
ATOM     10  F2  UNL d   1       0.357   2.321   1.893  0.00  0.00    -0.096 F 
ATOM     11  F3  UNL d   1       2.139   4.358   1.987  0.00  0.00    -0.097 F 
ATOM     12  F4  UNL d   1       4.284   4.393   0.302  0.00  0.00    -0.092 F 
ENDROOT
TORSDOF 0
ENDMDL
