MODEL 1
REMARK minimizedAffinity 18.9540768
REMARK minimizedRMSD -1
REMARK  0 active torsions:
REMARK  status: ('A' for Active; 'I' for Inactive)
ROOT
ATOM      1  C   UNL d   1       3.796  -2.366   4.234  0.00  0.00     0.124 A 
ATOM      2  C1  UNL d   1       4.601  -2.085   3.139  0.00  0.00     0.062 A 
ATOM      3  C2  UNL d   1       5.226  -3.118   2.446  0.00  0.00     0.162 A 
ATOM      4  C3  UNL d   1       5.047  -4.442   2.846  0.00  0.00    -0.034 A 
ATOM      5  C4  UNL d   1       4.237  -4.717   3.950  0.00  0.00     0.162 A 
ATOM      6  C5  UNL d   1       3.615  -3.681   4.638  0.00  0.00     0.062 A 
ATOM      7  F   UNL d   1       2.837  -3.954   5.696  0.00  0.00    -0.097 F 
ATOM      8  F1  UNL d   1       4.044  -5.979   4.361  0.00  0.00    -0.096 F 
ATOM      9  I   UNL d   1       5.980  -5.990   1.814  0.00  0.00    -0.060 I 
ATOM     10  F2  UNL d   1       5.998  -2.817   1.392  0.00  0.00    -0.096 F 
ATOM     11  F3  UNL d   1       4.778  -0.815   2.747  0.00  0.00    -0.097 F 
ATOM     12  F4  UNL d   1       3.196  -1.370   4.899  0.00  0.00    -0.092 F 
ENDROOT
TORSDOF 0
ENDMDL
