MODEL 1
REMARK minimizedAffinity -5.05613947
REMARK minimizedRMSD -1
REMARK  0 active torsions:
REMARK  status: ('A' for Active; 'I' for Inactive)
ROOT
ATOM      1  C2' OXE d   1      -2.014   5.081  -3.800  0.00  0.00     0.078 C 
ATOM      2  C1' OXE d   1       0.187   3.340  -3.790  0.00  0.00     0.078 C 
ATOM      3  C1  OXE d   1      -0.665   3.403  -2.548  0.00  0.00    -0.078 A 
ATOM      4  C2  OXE d   1      -1.713   4.292  -2.544  0.00  0.00    -0.078 A 
ATOM      5  C3  OXE d   1      -2.564   4.350  -1.444  0.00  0.00     0.003 A 
ATOM      6  C4  OXE d   1      -2.272   3.624  -0.283  0.00  0.00    -0.002 A 
ATOM      7  C5  OXE d   1      -1.187   2.742  -0.251  0.00  0.00    -0.002 A 
ATOM      8  C6  OXE d   1      -0.400   2.588  -1.387  0.00  0.00     0.003 A 
ENDROOT
TORSDOF 0
ENDMDL
