MODEL 1
REMARK minimizedAffinity -4.63568258
REMARK minimizedRMSD -1
REMARK  0 active torsions:
REMARK  status: ('A' for Active; 'I' for Inactive)
ROOT
ATOM      1  C2' OXE d   1      -0.167  -0.309  -2.601  0.00  0.00     0.078 C 
ATOM      2  C1' OXE d   1      -0.730   0.333   0.074  0.00  0.00     0.078 C 
ATOM      3  C1  OXE d   1      -1.097   1.344  -0.985  0.00  0.00    -0.078 A 
ATOM      4  C2  OXE d   1      -0.775   1.041  -2.286  0.00  0.00    -0.078 A 
ATOM      5  C3  OXE d   1      -1.141   1.914  -3.307  0.00  0.00     0.003 A 
ATOM      6  C4  OXE d   1      -1.694   3.165  -3.006  0.00  0.00    -0.002 A 
ATOM      7  C5  OXE d   1      -1.993   3.509  -1.684  0.00  0.00    -0.002 A 
ATOM      8  C6  OXE d   1      -1.740   2.595  -0.668  0.00  0.00     0.003 A 
ENDROOT
TORSDOF 0
ENDMDL
