MODEL 1
REMARK minimizedAffinity -2.37539864
REMARK minimizedRMSD -1
REMARK  0 active torsions:
REMARK  status: ('A' for Active; 'I' for Inactive)
ROOT
ATOM      1  C2' OXE d   1      -0.037  -0.051  -1.576  0.00  0.00     0.078 C 
ATOM      2  C1' OXE d   1       2.459  -1.065  -0.787  0.00  0.00     0.078 C 
ATOM      3  C1  OXE d   1       1.414  -0.857   0.281  0.00  0.00    -0.078 A 
ATOM      4  C2  OXE d   1       0.212  -0.316  -0.107  0.00  0.00    -0.078 A 
ATOM      5  C3  OXE d   1      -0.805  -0.154   0.829  0.00  0.00     0.003 A 
ATOM      6  C4  OXE d   1      -0.563  -0.393   2.187  0.00  0.00    -0.002 A 
ATOM      7  C5  OXE d   1       0.668  -0.906   2.610  0.00  0.00    -0.002 A 
ATOM      8  C6  OXE d   1       1.651  -1.183   1.666  0.00  0.00     0.003 A 
ENDROOT
TORSDOF 0
ENDMDL
