MODEL 1
REMARK minimizedAffinity -5.66036749
REMARK minimizedRMSD -1
REMARK  0 active torsions:
REMARK  status: ('A' for Active; 'I' for Inactive)
ROOT
ATOM      1  C2' OXE d   1      -1.390   0.923  -1.482  0.00  0.00     0.078 C 
ATOM      2  C1' OXE d   1      -0.625   3.355  -2.658  0.00  0.00     0.078 C 
ATOM      3  C1  OXE d   1      -2.098   3.035  -2.597  0.00  0.00    -0.078 A 
ATOM      4  C2  OXE d   1      -2.460   1.823  -2.062  0.00  0.00    -0.078 A 
ATOM      5  C3  OXE d   1      -3.808   1.502  -1.931  0.00  0.00     0.003 A 
ATOM      6  C4  OXE d   1      -4.792   2.335  -2.479  0.00  0.00    -0.002 A 
ATOM      7  C5  OXE d   1      -4.442   3.556  -3.064  0.00  0.00    -0.002 A 
ATOM      8  C6  OXE d   1      -3.105   3.940  -3.093  0.00  0.00     0.003 A 
ENDROOT
TORSDOF 0
ENDMDL
