MODEL 1
REMARK minimizedAffinity -0.035582222
REMARK minimizedRMSD -1
REMARK  0 active torsions:
REMARK  status: ('A' for Active; 'I' for Inactive)
ROOT
ATOM      1  C2' OXE d   1      -0.240   0.337  -1.724  0.00  0.00     0.078 C 
ATOM      2  C1' OXE d   1       1.828  -1.362  -0.877  0.00  0.00     0.078 C 
ATOM      3  C1  OXE d   1       0.770  -0.985   0.130  0.00  0.00    -0.078 A 
ATOM      4  C2  OXE d   1      -0.212  -0.116  -0.280  0.00  0.00    -0.078 A 
ATOM      5  C3  OXE d   1      -1.242   0.222   0.594  0.00  0.00     0.003 A 
ATOM      6  C4  OXE d   1      -1.203  -0.193   1.930  0.00  0.00    -0.002 A 
ATOM      7  C5  OXE d   1      -0.189  -1.046   2.379  0.00  0.00    -0.002 A 
ATOM      8  C6  OXE d   1       0.779  -1.485   1.483  0.00  0.00     0.003 A 
ENDROOT
TORSDOF 0
ENDMDL
