MODEL 1
REMARK minimizedAffinity -4.70050573
REMARK minimizedRMSD -1
REMARK  0 active torsions:
REMARK  status: ('A' for Active; 'I' for Inactive)
ROOT
ATOM      1  C2' OXE d   1      -0.372   0.155  -1.196  0.00  0.00     0.078 C 
ATOM      2  C1' OXE d   1      -1.339   0.184   1.440  0.00  0.00     0.078 C 
ATOM      3  C1  OXE d   1      -0.088  -0.610   1.158  0.00  0.00    -0.078 A 
ATOM      4  C2  OXE d   1       0.352  -0.657  -0.143  0.00  0.00    -0.078 A 
ATOM      5  C3  OXE d   1       1.531  -1.330  -0.449  0.00  0.00     0.003 A 
ATOM      6  C4  OXE d   1       2.189  -2.086   0.528  0.00  0.00    -0.002 A 
ATOM      7  C5  OXE d   1       1.736  -2.085   1.852  0.00  0.00    -0.002 A 
ATOM      8  C6  OXE d   1       0.626  -1.319   2.191  0.00  0.00     0.003 A 
ENDROOT
TORSDOF 0
ENDMDL
