MODEL 1
REMARK minimizedAffinity 0.759417355
REMARK minimizedRMSD -1
REMARK  0 active torsions:
REMARK  status: ('A' for Active; 'I' for Inactive)
ROOT
ATOM      1  C2' OXE d   1      -1.075  -0.970   2.550  0.00  0.00     0.078 C 
ATOM      2  C1' OXE d   1       1.620  -0.877   3.328  0.00  0.00     0.078 C 
ATOM      3  C1  OXE d   1       1.302  -0.676   1.867  0.00  0.00    -0.078 A 
ATOM      4  C2  OXE d   1      -0.016  -0.770   1.489  0.00  0.00    -0.078 A 
ATOM      5  C3  OXE d   1      -0.370  -0.539   0.163  0.00  0.00     0.003 A 
ATOM      6  C4  OXE d   1       0.617  -0.364  -0.815  0.00  0.00    -0.002 A 
ATOM      7  C5  OXE d   1       1.968  -0.305  -0.457  0.00  0.00    -0.002 A 
ATOM      8  C6  OXE d   1       2.323  -0.416   0.883  0.00  0.00     0.003 A 
ENDROOT
TORSDOF 0
ENDMDL
