MODEL 1
REMARK minimizedAffinity 5.93894815
REMARK minimizedRMSD -1
REMARK  0 active torsions:
REMARK  status: ('A' for Active; 'I' for Inactive)
ROOT
ATOM      1  C2' OXE d   1       0.351   3.227  -4.151  0.00  0.00     0.078 C 
ATOM      2  C1' OXE d   1      -0.698   5.671  -3.251  0.00  0.00     0.078 C 
ATOM      3  C1  OXE d   1      -1.442   4.410  -2.890  0.00  0.00    -0.078 A 
ATOM      4  C2  OXE d   1      -0.948   3.223  -3.374  0.00  0.00    -0.078 A 
ATOM      5  C3  OXE d   1      -1.566   2.025  -3.024  0.00  0.00     0.003 A 
ATOM      6  C4  OXE d   1      -2.772   2.031  -2.313  0.00  0.00    -0.002 A 
ATOM      7  C5  OXE d   1      -3.314   3.232  -1.845  0.00  0.00    -0.002 A 
ATOM      8  C6  OXE d   1      -2.641   4.424  -2.087  0.00  0.00     0.003 A 
ENDROOT
TORSDOF 0
ENDMDL
