MODEL 1
REMARK minimizedAffinity -2.05750585
REMARK minimizedRMSD -1
REMARK  0 active torsions:
REMARK  status: ('A' for Active; 'I' for Inactive)
ROOT
ATOM      1  C2' OXE d   1       1.857  -1.325  -1.563  0.00  0.00     0.078 C 
ATOM      2  C1' OXE d   1      -0.114   0.668  -1.408  0.00  0.00     0.078 C 
ATOM      3  C1  OXE d   1       0.084  -0.221  -0.206  0.00  0.00    -0.078 A 
ATOM      4  C2  OXE d   1       1.018  -1.223  -0.307  0.00  0.00    -0.078 A 
ATOM      5  C3  OXE d   1       1.279  -2.037   0.791  0.00  0.00     0.003 A 
ATOM      6  C4  OXE d   1       0.491  -1.943   1.945  0.00  0.00    -0.002 A 
ATOM      7  C5  OXE d   1      -0.493  -0.955   2.055  0.00  0.00    -0.002 A 
ATOM      8  C6  OXE d   1      -0.680  -0.061   1.007  0.00  0.00     0.003 A 
ENDROOT
TORSDOF 0
ENDMDL
