MODEL 1
REMARK minimizedAffinity -4.23165274
REMARK minimizedRMSD -1
REMARK  0 active torsions:
REMARK  status: ('A' for Active; 'I' for Inactive)
ROOT
ATOM      1  C2' OXE d   1       2.486  -0.665  -0.441  0.00  0.00     0.078 C 
ATOM      2  C1' OXE d   1       0.049  -0.332  -1.793  0.00  0.00     0.078 C 
ATOM      3  C1  OXE d   1      -0.002  -0.639  -0.317  0.00  0.00    -0.078 A 
ATOM      4  C2  OXE d   1       1.195  -0.847   0.327  0.00  0.00    -0.078 A 
ATOM      5  C3  OXE d   1       1.208  -1.079   1.699  0.00  0.00     0.003 A 
ATOM      6  C4  OXE d   1       0.008  -1.256   2.399  0.00  0.00    -0.002 A 
ATOM      7  C5  OXE d   1      -1.222  -1.088   1.754  0.00  0.00    -0.002 A 
ATOM      8  C6  OXE d   1      -1.244  -0.739   0.409  0.00  0.00     0.003 A 
ENDROOT
TORSDOF 0
ENDMDL
