MODEL 1
REMARK minimizedAffinity 11.8525963
REMARK minimizedRMSD -1
REMARK  1 active torsions:
REMARK  status: ('A' for Active; 'I' for Inactive)
REMARK    1  A    between atoms: C1_2  and  C2_3 
ROOT
ATOM      1  C2  UNL d   1       1.729  -2.630  -5.156  0.00  0.00    -0.077 A 
ATOM      2  C3  UNL d   1       0.580  -2.822  -5.937  0.00  0.00     0.002 A 
ATOM      3  C4  UNL d   1      -0.412  -1.840  -5.986  0.00  0.00     0.002 A 
ATOM      4  C5  UNL d   1      -0.263  -0.660  -5.262  0.00  0.00    -0.004 A 
ATOM      5  C6  UNL d   1       0.875  -0.461  -4.481  0.00  0.00     0.002 A 
ATOM      6  C7  UNL d   1       1.867  -1.441  -4.429  0.00  0.00     0.002 A 
ENDROOT
BRANCH   1   7
ATOM      7  C1  UNL d   1       2.822  -3.666  -5.140  0.00  0.00     0.055 C 
ATOM      8  C   UNL d   1       2.393  -4.935  -5.862  0.00  0.00     0.019 C 
ENDBRANCH   1   7
TORSDOF 1
ENDMDL
