MODEL 1
REMARK minimizedAffinity 2.92868853
REMARK minimizedRMSD -1
REMARK  1 active torsions:
REMARK  status: ('A' for Active; 'I' for Inactive)
REMARK    1  A    between atoms: C1_2  and  C2_3 
ROOT
ATOM      1  C2  UNL d   1      -1.140  -2.629  -4.690  0.00  0.00    -0.077 A 
ATOM      2  C3  UNL d   1      -1.471  -3.486  -5.748  0.00  0.00     0.002 A 
ATOM      3  C4  UNL d   1      -1.842  -4.808  -5.497  0.00  0.00     0.002 A 
ATOM      4  C5  UNL d   1      -1.890  -5.283  -4.188  0.00  0.00    -0.004 A 
ATOM      5  C6  UNL d   1      -1.561  -4.439  -3.128  0.00  0.00     0.002 A 
ATOM      6  C7  UNL d   1      -1.189  -3.117  -3.378  0.00  0.00     0.002 A 
ENDROOT
BRANCH   1   7
ATOM      7  C1  UNL d   1      -0.787  -1.188  -4.955  0.00  0.00     0.055 C 
ATOM      8  C   UNL d   1       0.462  -0.775  -4.191  0.00  0.00     0.019 C 
ENDBRANCH   1   7
TORSDOF 1
ENDMDL
