MODEL 1
REMARK minimizedAffinity 9.2665062
REMARK minimizedRMSD -1
REMARK  1 active torsions:
REMARK  status: ('A' for Active; 'I' for Inactive)
REMARK    1  A    between atoms: C1_2  and  C2_3 
ROOT
ATOM      1  C2  UNL d   1      -0.461  -2.499  -4.284  0.00  0.00    -0.077 A 
ATOM      2  C3  UNL d   1      -1.521  -2.983  -3.505  0.00  0.00     0.002 A 
ATOM      3  C4  UNL d   1      -2.320  -4.029  -3.971  0.00  0.00     0.002 A 
ATOM      4  C5  UNL d   1      -2.065  -4.602  -5.215  0.00  0.00    -0.004 A 
ATOM      5  C6  UNL d   1      -1.014  -4.126  -5.998  0.00  0.00     0.002 A 
ATOM      6  C7  UNL d   1      -0.215  -3.081  -5.535  0.00  0.00     0.002 A 
ENDROOT
BRANCH   1   7
ATOM      7  C1  UNL d   1       0.433  -1.405  -3.762  0.00  0.00     0.055 C 
ATOM      8  C   UNL d   1       0.223  -0.106  -4.527  0.00  0.00     0.019 C 
ENDBRANCH   1   7
TORSDOF 1
ENDMDL
