MODEL 1
REMARK minimizedAffinity 15.7999697
REMARK minimizedRMSD -1
REMARK  1 active torsions:
REMARK  status: ('A' for Active; 'I' for Inactive)
REMARK    1  A    between atoms: C1_2  and  C2_3 
ROOT
ATOM      1  C2  UNL d   1      -0.519  -0.606   1.982  0.00  0.00    -0.077 A 
ATOM      2  C3  UNL d   1       0.286  -1.753   2.034  0.00  0.00     0.002 A 
ATOM      3  C4  UNL d   1       1.512  -1.725   2.701  0.00  0.00     0.002 A 
ATOM      4  C5  UNL d   1       1.942  -0.555   3.324  0.00  0.00    -0.004 A 
ATOM      5  C6  UNL d   1       1.150   0.591   3.276  0.00  0.00     0.002 A 
ATOM      6  C7  UNL d   1      -0.075   0.566   2.608  0.00  0.00     0.002 A 
ENDROOT
BRANCH   1   7
ATOM      7  C1  UNL d   1      -1.864  -0.648   1.305  0.00  0.00     0.055 C 
ATOM      8  C   UNL d   1      -2.705   0.567   1.669  0.00  0.00     0.019 C 
ENDBRANCH   1   7
TORSDOF 1
ENDMDL
