MODEL 1
REMARK minimizedAffinity 5.26181269
REMARK minimizedRMSD -1
REMARK  1 active torsions:
REMARK  status: ('A' for Active; 'I' for Inactive)
REMARK    1  A    between atoms: C1_2  and  C2_3 
ROOT
ATOM      1  C2  UNL d   1      -0.793  -1.161   0.322  0.00  0.00    -0.076 A 
ATOM      2  C3  UNL d   1      -1.918  -0.528  -0.234  0.00  0.00     0.004 A 
ATOM      3  C4  UNL d   1      -1.841   0.776  -0.721  0.00  0.00    -0.003 A 
ATOM      4  C5  UNL d   1      -0.637   1.468  -0.659  0.00  0.00     0.000 A 
ATOM      5  C6  UNL d   1       0.493   0.851  -0.126  0.00  0.00     0.000 A 
ATOM      6  C7  UNL d   1       0.437  -0.469   0.354  0.00  0.00    -0.073 A 
ATOM      7  C8  UNL d   1       1.686  -1.084   0.924  0.00  0.00     0.078 C 
ENDROOT
BRANCH   1   8
ATOM      8  C1  UNL d   1      -0.943  -2.566   0.859  0.00  0.00     0.053 C 
ATOM      9  C   UNL d   1      -0.675  -3.625  -0.200  0.00  0.00     0.018 C 
ENDBRANCH   1   8
TORSDOF 1
ENDMDL
