MODEL 1
REMARK minimizedAffinity 3.00581765
REMARK minimizedRMSD -1
REMARK  1 active torsions:
REMARK  status: ('A' for Active; 'I' for Inactive)
REMARK    1  A    between atoms: C1_2  and  C2_3 
ROOT
ATOM      1  C2  UNL d   1       0.293  -0.320   0.433  0.00  0.00    -0.076 A 
ATOM      2  C3  UNL d   1       0.328   1.081   0.315  0.00  0.00     0.004 A 
ATOM      3  C4  UNL d   1      -0.824   1.804   0.010  0.00  0.00    -0.003 A 
ATOM      4  C5  UNL d   1      -2.030   1.138  -0.180  0.00  0.00     0.000 A 
ATOM      5  C6  UNL d   1      -2.086  -0.249  -0.049  0.00  0.00     0.000 A 
ATOM      6  C7  UNL d   1      -0.938  -0.991   0.273  0.00  0.00    -0.073 A 
ATOM      7  C8  UNL d   1      -1.055  -2.486   0.396  0.00  0.00     0.078 C 
ENDROOT
BRANCH   1   8
ATOM      8  C1  UNL d   1       1.580  -1.053   0.738  0.00  0.00     0.053 C 
ATOM      9  C   UNL d   1       1.961  -0.974   2.208  0.00  0.00     0.018 C 
ENDBRANCH   1   8
TORSDOF 1
ENDMDL
