MODEL 1
REMARK minimizedAffinity 6.57571602
REMARK minimizedRMSD -1
REMARK  1 active torsions:
REMARK  status: ('A' for Active; 'I' for Inactive)
REMARK    1  A    between atoms: C1_2  and  C2_3 
ROOT
ATOM      1  C2  UNL d   1       0.542   1.441   2.188  0.00  0.00    -0.076 A 
ATOM      2  C3  UNL d   1      -0.476   1.938   1.356  0.00  0.00     0.004 A 
ATOM      3  C4  UNL d   1      -1.045   1.142   0.364  0.00  0.00    -0.003 A 
ATOM      4  C5  UNL d   1      -0.606  -0.166   0.188  0.00  0.00     0.000 A 
ATOM      5  C6  UNL d   1       0.392  -0.681   1.015  0.00  0.00     0.000 A 
ATOM      6  C7  UNL d   1       0.965   0.103   2.031  0.00  0.00    -0.073 A 
ATOM      7  C8  UNL d   1       2.041  -0.501   2.890  0.00  0.00     0.078 C 
ENDROOT
BRANCH   1   8
ATOM      8  C1  UNL d   1       1.141   2.360   3.229  0.00  0.00     0.053 C 
ATOM      9  C   UNL d   1       1.503   3.724   2.662  0.00  0.00     0.018 C 
ENDBRANCH   1   8
TORSDOF 1
ENDMDL
