MODEL 1
REMARK minimizedAffinity 11.1765184
REMARK minimizedRMSD -1
REMARK  1 active torsions:
REMARK  status: ('A' for Active; 'I' for Inactive)
REMARK    1  A    between atoms: C1_2  and  C2_3 
ROOT
ATOM      1  C2  UNL d   1      -1.750  -2.113  -1.583  0.00  0.00    -0.076 A 
ATOM      2  C3  UNL d   1      -1.974  -3.355  -2.202  0.00  0.00     0.004 A 
ATOM      3  C4  UNL d   1      -1.314  -4.503  -1.767  0.00  0.00    -0.003 A 
ATOM      4  C5  UNL d   1      -0.420  -4.427  -0.704  0.00  0.00     0.000 A 
ATOM      5  C6  UNL d   1      -0.199  -3.207  -0.067  0.00  0.00     0.000 A 
ATOM      6  C7  UNL d   1      -0.869  -2.043  -0.483  0.00  0.00    -0.073 A 
ATOM      7  C8  UNL d   1      -0.588  -0.752   0.237  0.00  0.00     0.078 C 
ENDROOT
BRANCH   1   8
ATOM      8  C1  UNL d   1      -2.474  -0.897  -2.116  0.00  0.00     0.053 C 
ATOM      9  C   UNL d   1      -3.838  -1.238  -2.694  0.00  0.00     0.018 C 
ENDBRANCH   1   8
TORSDOF 1
ENDMDL
