MODEL 1
REMARK minimizedAffinity 1.29016757
REMARK minimizedRMSD -1
REMARK  1 active torsions:
REMARK  status: ('A' for Active; 'I' for Inactive)
REMARK    1  A    between atoms: C1_2  and  C2_3 
ROOT
ATOM      1  C2  UNL d   1      -2.633  -4.152  -3.706  0.00  0.00    -0.076 A 
ATOM      2  C3  UNL d   1      -3.350  -3.536  -4.747  0.00  0.00     0.004 A 
ATOM      3  C4  UNL d   1      -3.908  -2.270  -4.582  0.00  0.00    -0.003 A 
ATOM      4  C5  UNL d   1      -3.759  -1.599  -3.373  0.00  0.00     0.000 A 
ATOM      5  C6  UNL d   1      -3.036  -2.187  -2.336  0.00  0.00     0.000 A 
ATOM      6  C7  UNL d   1      -2.452  -3.456  -2.492  0.00  0.00    -0.073 A 
ATOM      7  C8  UNL d   1      -1.688  -4.046  -1.338  0.00  0.00     0.078 C 
ENDROOT
BRANCH   1   8
ATOM      8  C1  UNL d   1      -2.072  -5.538  -3.934  0.00  0.00     0.053 C 
ATOM      9  C   UNL d   1      -2.228  -6.000  -5.375  0.00  0.00     0.018 C 
ENDBRANCH   1   8
TORSDOF 1
ENDMDL
