MODEL 1
REMARK minimizedAffinity 7.94171095
REMARK minimizedRMSD -1
REMARK  1 active torsions:
REMARK  status: ('A' for Active; 'I' for Inactive)
REMARK    1  A    between atoms: C1_2  and  C2_3 
ROOT
ATOM      1  C2  UNL d   1       0.194   1.074   1.586  0.00  0.00    -0.076 A 
ATOM      2  C3  UNL d   1      -0.517   1.561   0.475  0.00  0.00     0.004 A 
ATOM      3  C4  UNL d   1      -0.395   0.956  -0.775  0.00  0.00    -0.003 A 
ATOM      4  C5  UNL d   1       0.438  -0.145  -0.934  0.00  0.00     0.000 A 
ATOM      5  C6  UNL d   1       1.137  -0.652   0.162  0.00  0.00     0.000 A 
ATOM      6  C7  UNL d   1       1.013  -0.065   1.432  0.00  0.00    -0.073 A 
ATOM      7  C8  UNL d   1       1.794  -0.649   2.577  0.00  0.00     0.078 C 
ENDROOT
BRANCH   1   8
ATOM      8  C1  UNL d   1       0.043   1.787   2.911  0.00  0.00     0.053 C 
ATOM      9  C   UNL d   1       1.171   2.773   3.174  0.00  0.00     0.018 C 
ENDBRANCH   1   8
TORSDOF 1
ENDMDL
