MODEL 1
REMARK minimizedAffinity 12.4384384
REMARK minimizedRMSD -1
REMARK  1 active torsions:
REMARK  status: ('A' for Active; 'I' for Inactive)
REMARK    1  A    between atoms: C1_2  and  C2_3 
ROOT
ATOM      1  C2  UNL d   1       0.527   1.737   2.291  0.00  0.00    -0.076 A 
ATOM      2  C3  UNL d   1      -0.623   2.276   1.687  0.00  0.00     0.004 A 
ATOM      3  C4  UNL d   1      -1.310   1.574   0.698  0.00  0.00    -0.003 A 
ATOM      4  C5  UNL d   1      -0.858   0.322   0.297  0.00  0.00     0.000 A 
ATOM      5  C6  UNL d   1       0.271  -0.236   0.897  0.00  0.00     0.000 A 
ATOM      6  C7  UNL d   1       0.965   0.452   1.907  0.00  0.00    -0.073 A 
ATOM      7  C8  UNL d   1       2.180  -0.194   2.516  0.00  0.00     0.078 C 
ENDROOT
BRANCH   1   8
ATOM      8  C1  UNL d   1       1.246   2.556   3.339  0.00  0.00     0.053 C 
ATOM      9  C   UNL d   1       1.192   4.049   3.050  0.00  0.00     0.018 C 
ENDBRANCH   1   8
TORSDOF 1
ENDMDL
