MODEL 1
REMARK minimizedAffinity 5.04790926
REMARK minimizedRMSD -1
REMARK  1 active torsions:
REMARK  status: ('A' for Active; 'I' for Inactive)
REMARK    1  A    between atoms: C1_2  and  C2_3 
ROOT
ATOM      1  C2  UNL d   1      -0.846   0.625   0.216  0.00  0.00    -0.076 A 
ATOM      2  C3  UNL d   1      -0.934   0.270  -1.141  0.00  0.00     0.004 A 
ATOM      3  C4  UNL d   1       0.169  -0.242  -1.822  0.00  0.00    -0.003 A 
ATOM      4  C5  UNL d   1       1.378  -0.409  -1.156  0.00  0.00     0.000 A 
ATOM      5  C6  UNL d   1       1.479  -0.079   0.195  0.00  0.00     0.000 A 
ATOM      6  C7  UNL d   1       0.372   0.424   0.900  0.00  0.00    -0.073 A 
ATOM      7  C8  UNL d   1       0.539   0.769   2.355  0.00  0.00     0.078 C 
ENDROOT
BRANCH   1   8
ATOM      8  C1  UNL d   1      -2.068   1.201   0.895  0.00  0.00     0.053 C 
ATOM      9  C   UNL d   1      -3.273   1.265  -0.031  0.00  0.00     0.018 C 
ENDBRANCH   1   8
TORSDOF 1
ENDMDL
