MODEL 1
REMARK minimizedAffinity 8.19095516
REMARK minimizedRMSD -1
REMARK  1 active torsions:
REMARK  status: ('A' for Active; 'I' for Inactive)
REMARK    1  A    between atoms: C1_2  and  C2_3 
ROOT
ATOM      1  C2  UNL d   1      -3.321   5.717  -3.271  0.00  0.00    -0.076 A 
ATOM      2  C3  UNL d   1      -3.061   5.804  -4.649  0.00  0.00     0.004 A 
ATOM      3  C4  UNL d   1      -4.099   5.944  -5.568  0.00  0.00    -0.003 A 
ATOM      4  C5  UNL d   1      -5.416   5.999  -5.123  0.00  0.00     0.000 A 
ATOM      5  C6  UNL d   1      -5.691   5.932  -3.758  0.00  0.00     0.000 A 
ATOM      6  C7  UNL d   1      -4.654   5.808  -2.817  0.00  0.00    -0.073 A 
ATOM      7  C8  UNL d   1      -5.009   5.734  -1.358  0.00  0.00     0.078 C 
ENDROOT
BRANCH   1   8
ATOM      8  C1  UNL d   1      -2.156   5.539  -2.324  0.00  0.00     0.053 C 
ATOM      9  C   UNL d   1      -0.825   5.907  -2.961  0.00  0.00     0.018 C 
ENDBRANCH   1   8
TORSDOF 1
ENDMDL
