MODEL 1
REMARK minimizedAffinity -5.06890202
REMARK minimizedRMSD -1
REMARK  3 active torsions:
REMARK  status: ('A' for Active; 'I' for Inactive)
REMARK    1  A    between atoms: C3'_2  and  C2'_3 
REMARK    2  A    between atoms: C2'_3  and  C1'_4 
REMARK    3  A    between atoms: C1'_4  and  C1_5 
ROOT
ATOM      1  C1  N4B d   1       0.081  -0.416  -0.188  0.00  0.00    -0.075 A 
ATOM      2  C2  N4B d   1       1.145  -1.293  -0.491  0.00  0.00     0.002 A 
ATOM      3  C3  N4B d   1       1.220  -2.519   0.122  0.00  0.00     0.002 A 
ATOM      4  C4  N4B d   1       0.257  -2.881   1.053  0.00  0.00    -0.004 A 
ATOM      5  C5  N4B d   1      -0.782  -2.038   1.321  0.00  0.00     0.002 A 
ATOM      6  C6  N4B d   1      -0.872  -0.804   0.709  0.00  0.00     0.002 A 
ENDROOT
BRANCH   1   7
ATOM      7  C1' N4B d   1       0.003   0.969  -0.769  0.00  0.00     0.057 C 
BRANCH   7   8
ATOM      8  C2' N4B d   1       1.197   1.785  -0.282  0.00  0.00     0.009 C 
BRANCH   8   9
ATOM      9  C3' N4B d   1       0.765   3.045   0.448  0.00  0.00     0.004 C 
ATOM     10  C4' N4B d   1       1.707   3.429   1.550  0.00  0.00     0.003 C 
ENDBRANCH   8   9
ENDBRANCH   7   8
ENDBRANCH   1   7
TORSDOF 3
ENDMDL
