MODEL 1
REMARK minimizedAffinity -2.71130943
REMARK minimizedRMSD -1
REMARK  3 active torsions:
REMARK  status: ('A' for Active; 'I' for Inactive)
REMARK    1  A    between atoms: C3'_2  and  C2'_3 
REMARK    2  A    between atoms: C2'_3  and  C1'_4 
REMARK    3  A    between atoms: C1'_4  and  C1_5 
ROOT
ATOM      1  C1  N4B d   1      -0.250  -0.311   0.381  0.00  0.00    -0.075 A 
ATOM      2  C2  N4B d   1      -1.382  -1.095   0.696  0.00  0.00     0.002 A 
ATOM      3  C3  N4B d   1      -1.284  -2.465   0.718  0.00  0.00     0.002 A 
ATOM      4  C4  N4B d   1      -0.075  -3.071   0.411  0.00  0.00    -0.004 A 
ATOM      5  C5  N4B d   1       1.020  -2.306   0.132  0.00  0.00     0.002 A 
ATOM      6  C6  N4B d   1       0.937  -0.928   0.110  0.00  0.00     0.002 A 
ENDROOT
BRANCH   1   7
ATOM      7  C1' N4B d   1      -0.330   1.186   0.260  0.00  0.00     0.057 C 
BRANCH   7   8
ATOM      8  C2' N4B d   1       0.708   1.663  -0.751  0.00  0.00     0.009 C 
BRANCH   8   9
ATOM      9  C3' N4B d   1       1.582   2.771  -0.187  0.00  0.00     0.004 C 
ATOM     10  C4' N4B d   1       2.972   2.758  -0.751  0.00  0.00     0.003 C 
ENDBRANCH   8   9
ENDBRANCH   7   8
ENDBRANCH   1   7
TORSDOF 3
ENDMDL
