MODEL 1
REMARK minimizedAffinity -4.99818993
REMARK minimizedRMSD -1
REMARK  3 active torsions:
REMARK  status: ('A' for Active; 'I' for Inactive)
REMARK    1  A    between atoms: C3'_2  and  C2'_3 
REMARK    2  A    between atoms: C2'_3  and  C1'_4 
REMARK    3  A    between atoms: C1'_4  and  C1_5 
ROOT
ATOM      1  C1  N4B d   1      -0.477  -0.084   0.063  0.00  0.00    -0.075 A 
ATOM      2  C2  N4B d   1       0.379  -0.807  -0.797  0.00  0.00     0.002 A 
ATOM      3  C3  N4B d   1       0.497  -2.168  -0.663  0.00  0.00     0.002 A 
ATOM      4  C4  N4B d   1      -0.212  -2.824   0.332  0.00  0.00    -0.004 A 
ATOM      5  C5  N4B d   1      -1.056  -2.123   1.143  0.00  0.00     0.002 A 
ATOM      6  C6  N4B d   1      -1.188  -0.754   1.017  0.00  0.00     0.002 A 
ENDROOT
BRANCH   1   7
ATOM      7  C1' N4B d   1      -0.574   1.416   0.011  0.00  0.00     0.057 C 
BRANCH   7   8
ATOM      8  C2' N4B d   1       0.830   2.011   0.057  0.00  0.00     0.009 C 
BRANCH   8   9
ATOM      9  C3' N4B d   1       0.867   3.323   0.822  0.00  0.00     0.004 C 
ATOM     10  C4' N4B d   1       2.251   3.886   0.944  0.00  0.00     0.003 C 
ENDBRANCH   8   9
ENDBRANCH   7   8
ENDBRANCH   1   7
TORSDOF 3
ENDMDL
