MODEL 1
REMARK minimizedAffinity -3.58605385
REMARK minimizedRMSD -1
REMARK  3 active torsions:
REMARK  status: ('A' for Active; 'I' for Inactive)
REMARK    1  A    between atoms: C3'_2  and  C2'_3 
REMARK    2  A    between atoms: C2'_3  and  C1'_4 
REMARK    3  A    between atoms: C1'_4  and  C1_5 
ROOT
ATOM      1  C1  N4B d   1      -0.037  -0.108  -0.309  0.00  0.00    -0.075 A 
ATOM      2  C2  N4B d   1      -0.894  -0.506   0.741  0.00  0.00     0.002 A 
ATOM      3  C3  N4B d   1      -0.946  -1.825   1.121  0.00  0.00     0.002 A 
ATOM      4  C4  N4B d   1      -0.170  -2.762   0.456  0.00  0.00    -0.004 A 
ATOM      5  C5  N4B d   1       0.674  -2.365  -0.540  0.00  0.00     0.002 A 
ATOM      6  C6  N4B d   1       0.740  -1.042  -0.930  0.00  0.00     0.002 A 
ENDROOT
BRANCH   1   7
ATOM      7  C1' N4B d   1      -0.009   1.308  -0.817  0.00  0.00     0.057 C 
BRANCH   7   8
ATOM      8  C2' N4B d   1      -0.293   2.261   0.340  0.00  0.00     0.009 C 
BRANCH   8   9
ATOM      9  C3' N4B d   1       0.787   3.318   0.484  0.00  0.00     0.004 C 
ATOM     10  C4' N4B d   1       0.957   3.787   1.899  0.00  0.00     0.003 C 
ENDBRANCH   8   9
ENDBRANCH   7   8
ENDBRANCH   1   7
TORSDOF 3
ENDMDL
