MODEL 1
REMARK minimizedAffinity -5.55670547
REMARK minimizedRMSD -1
REMARK  3 active torsions:
REMARK  status: ('A' for Active; 'I' for Inactive)
REMARK    1  A    between atoms: C3'_2  and  C2'_3 
REMARK    2  A    between atoms: C2'_3  and  C1'_4 
REMARK    3  A    between atoms: C1'_4  and  C1_5 
ROOT
ATOM      1  C1  N4B d   1      -0.186  -0.396   0.231  0.00  0.00    -0.075 A 
ATOM      2  C2  N4B d   1       0.755  -0.697  -0.778  0.00  0.00     0.002 A 
ATOM      3  C3  N4B d   1       1.131  -1.999  -0.999  0.00  0.00     0.002 A 
ATOM      4  C4  N4B d   1       0.597  -3.010  -0.214  0.00  0.00    -0.004 A 
ATOM      5  C5  N4B d   1      -0.330  -2.714   0.741  0.00  0.00     0.002 A 
ATOM      6  C6  N4B d   1      -0.721  -1.410   0.972  0.00  0.00     0.002 A 
ENDROOT
BRANCH   1   7
ATOM      7  C1' N4B d   1      -0.564   1.021   0.567  0.00  0.00     0.057 C 
BRANCH   7   8
ATOM      8  C2' N4B d   1       0.163   1.971  -0.380  0.00  0.00     0.009 C 
BRANCH   8   9
ATOM      9  C3' N4B d   1       0.661   3.215   0.336  0.00  0.00     0.004 C 
ATOM     10  C4' N4B d   1       2.070   3.572  -0.034  0.00  0.00     0.003 C 
ENDBRANCH   8   9
ENDBRANCH   7   8
ENDBRANCH   1   7
TORSDOF 3
ENDMDL
