MODEL 1
REMARK minimizedAffinity -3.22440434
REMARK minimizedRMSD -1
REMARK  3 active torsions:
REMARK  status: ('A' for Active; 'I' for Inactive)
REMARK    1  A    between atoms: C3'_2  and  C2'_3 
REMARK    2  A    between atoms: C2'_3  and  C1'_4 
REMARK    3  A    between atoms: C1'_4  and  C1_5 
ROOT
ATOM      1  C1  N4B d   1       0.199  -0.355  -0.552  0.00  0.00    -0.075 A 
ATOM      2  C2  N4B d   1      -0.830  -0.702   0.351  0.00  0.00     0.002 A 
ATOM      3  C3  N4B d   1      -0.928  -1.990   0.818  0.00  0.00     0.002 A 
ATOM      4  C4  N4B d   1      -0.024  -2.947   0.383  0.00  0.00    -0.004 A 
ATOM      5  C5  N4B d   1       0.982  -2.598  -0.470  0.00  0.00     0.002 A 
ATOM      6  C6  N4B d   1       1.095  -1.307  -0.944  0.00  0.00     0.002 A 
ENDROOT
BRANCH   1   7
ATOM      7  C1' N4B d   1       0.295   1.020  -1.156  0.00  0.00     0.057 C 
BRANCH   7   8
ATOM      8  C2' N4B d   1      -0.032   2.060  -0.089  0.00  0.00     0.009 C 
BRANCH   8   9
ATOM      9  C3' N4B d   1       1.181   2.896   0.281  0.00  0.00     0.004 C 
ATOM     10  C4' N4B d   1       0.952   3.750   1.492  0.00  0.00     0.003 C 
ENDBRANCH   8   9
ENDBRANCH   7   8
ENDBRANCH   1   7
TORSDOF 3
ENDMDL
