MODEL 1
REMARK minimizedAffinity -5.46597576
REMARK minimizedRMSD -1
REMARK  3 active torsions:
REMARK  status: ('A' for Active; 'I' for Inactive)
REMARK    1  A    between atoms: C3'_2  and  C2'_3 
REMARK    2  A    between atoms: C2'_3  and  C1'_4 
REMARK    3  A    between atoms: C1'_4  and  C1_5 
ROOT
ATOM      1  C1  N4B d   1      -0.330   0.149  -0.530  0.00  0.00    -0.075 A 
ATOM      2  C2  N4B d   1      -0.906  -0.015   0.749  0.00  0.00     0.002 A 
ATOM      3  C3  N4B d   1      -1.235  -1.270   1.198  0.00  0.00     0.002 A 
ATOM      4  C4  N4B d   1      -1.016  -2.370   0.381  0.00  0.00    -0.004 A 
ATOM      5  C5  N4B d   1      -0.436  -2.206  -0.842  0.00  0.00     0.002 A 
ATOM      6  C6  N4B d   1      -0.096  -0.950  -1.305  0.00  0.00     0.002 A 
ENDROOT
BRANCH   1   7
ATOM      7  C1' N4B d   1      -0.032   1.509  -1.098  0.00  0.00     0.057 C 
BRANCH   7   8
ATOM      8  C2' N4B d   1       0.224   2.485   0.046  0.00  0.00     0.009 C 
BRANCH   8   9
ATOM      9  C3' N4B d   1       1.662   2.977   0.063  0.00  0.00     0.004 C 
ATOM     10  C4' N4B d   1       2.065   3.546   1.391  0.00  0.00     0.003 C 
ENDBRANCH   8   9
ENDBRANCH   7   8
ENDBRANCH   1   7
TORSDOF 3
ENDMDL
