MODEL 1
REMARK minimizedAffinity -3.29637122
REMARK minimizedRMSD -1
REMARK  3 active torsions:
REMARK  status: ('A' for Active; 'I' for Inactive)
REMARK    1  A    between atoms: C3'_2  and  C2'_3 
REMARK    2  A    between atoms: C2'_3  and  C1'_4 
REMARK    3  A    between atoms: C1'_4  and  C1_5 
ROOT
ATOM      1  C1  N4B d   1       0.070  -0.546   0.416  0.00  0.00    -0.075 A 
ATOM      2  C2  N4B d   1      -0.890  -1.546   0.149  0.00  0.00     0.002 A 
ATOM      3  C3  N4B d   1      -0.529  -2.871   0.182  0.00  0.00     0.002 A 
ATOM      4  C4  N4B d   1       0.785  -3.217   0.459  0.00  0.00    -0.004 A 
ATOM      5  C5  N4B d   1       1.701  -2.245   0.740  0.00  0.00     0.002 A 
ATOM      6  C6  N4B d   1       1.351  -0.910   0.715  0.00  0.00     0.002 A 
ENDROOT
BRANCH   1   7
ATOM      7  C1' N4B d   1      -0.258   0.918   0.308  0.00  0.00     0.057 C 
BRANCH   7   8
ATOM      8  C2' N4B d   1       1.038   1.724   0.329  0.00  0.00     0.009 C 
BRANCH   8   9
ATOM      9  C3' N4B d   1       0.808   3.157   0.778  0.00  0.00     0.004 C 
ATOM     10  C4' N4B d   1       2.052   3.993   0.713  0.00  0.00     0.003 C 
ENDBRANCH   8   9
ENDBRANCH   7   8
ENDBRANCH   1   7
TORSDOF 3
ENDMDL
