MODEL 1
REMARK minimizedAffinity -3.2329576
REMARK minimizedRMSD -1
REMARK  3 active torsions:
REMARK  status: ('A' for Active; 'I' for Inactive)
REMARK    1  A    between atoms: C3'_2  and  C2'_3 
REMARK    2  A    between atoms: C2'_3  and  C1'_4 
REMARK    3  A    between atoms: C1'_4  and  C1_5 
ROOT
ATOM      1  C1  N4B d   1       0.086  -0.073  -0.447  0.00  0.00    -0.075 A 
ATOM      2  C2  N4B d   1      -0.933  -0.336   0.495  0.00  0.00     0.002 A 
ATOM      3  C3  N4B d   1      -1.038  -1.583   1.061  0.00  0.00     0.002 A 
ATOM      4  C4  N4B d   1      -0.153  -2.583   0.687  0.00  0.00    -0.004 A 
ATOM      5  C5  N4B d   1       0.843  -2.313  -0.204  0.00  0.00     0.002 A 
ATOM      6  C6  N4B d   1       0.964  -1.063  -0.778  0.00  0.00     0.002 A 
ENDROOT
BRANCH   1   7
ATOM      7  C1' N4B d   1       0.188   1.250  -1.156  0.00  0.00     0.057 C 
BRANCH   7   8
ATOM      8  C2' N4B d   1       0.120   2.376  -0.129  0.00  0.00     0.009 C 
BRANCH   8   9
ATOM      9  C3' N4B d   1       1.490   2.968   0.157  0.00  0.00     0.004 C 
ATOM     10  C4' N4B d   1       1.575   3.610   1.510  0.00  0.00     0.003 C 
ENDBRANCH   8   9
ENDBRANCH   7   8
ENDBRANCH   1   7
TORSDOF 3
ENDMDL
