MODEL 1
REMARK minimizedAffinity 7.05411863
REMARK minimizedRMSD -1
REMARK  0 active torsions:
REMARK  status: ('A' for Active; 'I' for Inactive)
ROOT
ATOM      1  C   UNL d   1       0.442  -1.148  -0.549  0.00  0.00     0.124 A 
ATOM      2  C1  UNL d   1       1.746  -1.623  -0.501  0.00  0.00     0.062 A 
ATOM      3  C2  UNL d   1       2.025  -2.840   0.113  0.00  0.00     0.162 A 
ATOM      4  C3  UNL d   1       0.999  -3.593   0.684  0.00  0.00    -0.034 A 
ATOM      5  C4  UNL d   1      -0.309  -3.108   0.633  0.00  0.00     0.162 A 
ATOM      6  C5  UNL d   1      -0.584  -1.891   0.019  0.00  0.00     0.062 A 
ATOM      7  F   UNL d   1      -1.844  -1.433  -0.026  0.00  0.00    -0.097 F 
ATOM      8  F1  UNL d   1      -1.320  -3.806   1.173  0.00  0.00    -0.096 F 
ATOM      9  I   UNL d   1       1.413  -5.413   1.603  0.00  0.00    -0.060 I 
ATOM     10  F2  UNL d   1       3.294  -3.275   0.144  0.00  0.00    -0.096 F 
ATOM     11  F3  UNL d   1       2.739  -0.907  -1.048  0.00  0.00    -0.097 F 
ATOM     12  F4  UNL d   1       0.176   0.024  -1.139  0.00  0.00    -0.092 F 
ENDROOT
TORSDOF 0
ENDMDL
