MODEL 1
REMARK minimizedAffinity 13.7176619
REMARK minimizedRMSD -1
REMARK  0 active torsions:
REMARK  status: ('A' for Active; 'I' for Inactive)
ROOT
ATOM      1  C   UNL d   1       1.157  -2.735   0.728  0.00  0.00     0.124 A 
ATOM      2  C1  UNL d   1      -0.114  -2.815   0.174  0.00  0.00     0.062 A 
ATOM      3  C2  UNL d   1      -0.450  -2.026  -0.922  0.00  0.00     0.162 A 
ATOM      4  C3  UNL d   1       0.486  -1.151  -1.473  0.00  0.00    -0.034 A 
ATOM      5  C4  UNL d   1       1.761  -1.076  -0.911  0.00  0.00     0.162 A 
ATOM      6  C5  UNL d   1       2.093  -1.866   0.185  0.00  0.00     0.062 A 
ATOM      7  F   UNL d   1       3.320  -1.788   0.719  0.00  0.00    -0.097 F 
ATOM      8  F1  UNL d   1       2.685  -0.245  -1.416  0.00  0.00    -0.096 F 
ATOM      9  I   UNL d   1      -0.013   0.031  -3.112  0.00  0.00    -0.060 I 
ATOM     10  F2  UNL d   1      -1.685  -2.123  -1.437  0.00  0.00    -0.096 F 
ATOM     11  F3  UNL d   1      -1.020  -3.653   0.697  0.00  0.00    -0.097 F 
ATOM     12  F4  UNL d   1       1.477  -3.495   1.783  0.00  0.00    -0.092 F 
ENDROOT
TORSDOF 0
ENDMDL
