MODEL 1
REMARK minimizedAffinity 2.16295743
REMARK minimizedRMSD -1
REMARK  0 active torsions:
REMARK  status: ('A' for Active; 'I' for Inactive)
ROOT
ATOM      1  C   UNL d   1       0.247  -0.900  -0.788  0.00  0.00     0.124 A 
ATOM      2  C1  UNL d   1       1.562  -1.254  -0.518  0.00  0.00     0.062 A 
ATOM      3  C2  UNL d   1       1.845  -2.454   0.128  0.00  0.00     0.162 A 
ATOM      4  C3  UNL d   1       0.811  -3.309   0.509  0.00  0.00    -0.034 A 
ATOM      5  C4  UNL d   1      -0.509  -2.946   0.235  0.00  0.00     0.162 A 
ATOM      6  C5  UNL d   1      -0.787  -1.746  -0.412  0.00  0.00     0.062 A 
ATOM      7  F   UNL d   1      -2.058  -1.405  -0.672  0.00  0.00    -0.097 F 
ATOM      8  F1  UNL d   1      -1.527  -3.745   0.587  0.00  0.00    -0.096 F 
ATOM      9  I   UNL d   1       1.230  -5.104   1.476  0.00  0.00    -0.060 I 
ATOM     10  F2  UNL d   1       3.124  -2.771   0.377  0.00  0.00    -0.096 F 
ATOM     11  F3  UNL d   1       2.562  -0.439  -0.880  0.00  0.00    -0.097 F 
ATOM     12  F4  UNL d   1      -0.023   0.255  -1.410  0.00  0.00    -0.092 F 
ENDROOT
TORSDOF 0
ENDMDL
