MODEL 1
REMARK minimizedAffinity 15.7259932
REMARK minimizedRMSD -1
REMARK  0 active torsions:
REMARK  status: ('A' for Active; 'I' for Inactive)
ROOT
ATOM      1  C   UNL d   1      -0.215  -1.730  -0.329  0.00  0.00     0.124 A 
ATOM      2  C1  UNL d   1      -0.940  -2.428  -1.285  0.00  0.00     0.062 A 
ATOM      3  C2  UNL d   1      -0.744  -2.169  -2.638  0.00  0.00     0.162 A 
ATOM      4  C3  UNL d   1       0.183  -1.209  -3.044  0.00  0.00    -0.034 A 
ATOM      5  C4  UNL d   1       0.908  -0.511  -2.077  0.00  0.00     0.162 A 
ATOM      6  C5  UNL d   1       0.708  -0.773  -0.725  0.00  0.00     0.062 A 
ATOM      7  F   UNL d   1       1.409  -0.098   0.197  0.00  0.00    -0.097 F 
ATOM      8  F1  UNL d   1       1.807   0.419  -2.432  0.00  0.00    -0.096 F 
ATOM      9  I   UNL d   1       0.480  -0.820  -5.067  0.00  0.00    -0.060 I 
ATOM     10  F2  UNL d   1      -1.459  -2.858  -3.540  0.00  0.00    -0.096 F 
ATOM     11  F3  UNL d   1      -1.834  -3.352  -0.904  0.00  0.00    -0.097 F 
ATOM     12  F4  UNL d   1      -0.407  -1.980   0.973  0.00  0.00    -0.092 F 
ENDROOT
TORSDOF 0
ENDMDL
