MODEL 1
REMARK minimizedAffinity 22.1543064
REMARK minimizedRMSD -1
REMARK  0 active torsions:
REMARK  status: ('A' for Active; 'I' for Inactive)
ROOT
ATOM      1  C   UNL d   1      -3.812  -1.321   3.278  0.00  0.00     0.124 A 
ATOM      2  C1  UNL d   1      -4.750  -0.496   2.673  0.00  0.00     0.062 A 
ATOM      3  C2  UNL d   1      -4.591   0.886   2.705  0.00  0.00     0.162 A 
ATOM      4  C3  UNL d   1      -3.489   1.454   3.345  0.00  0.00    -0.034 A 
ATOM      5  C4  UNL d   1      -2.550   0.618   3.952  0.00  0.00     0.162 A 
ATOM      6  C5  UNL d   1      -2.713  -0.763   3.917  0.00  0.00     0.062 A 
ATOM      7  F   UNL d   1      -1.806  -1.558   4.503  0.00  0.00    -0.097 F 
ATOM      8  F1  UNL d   1      -1.479   1.130   4.576  0.00  0.00    -0.096 F 
ATOM      9  I   UNL d   1      -3.248   3.520   3.395  0.00  0.00    -0.060 I 
ATOM     10  F2  UNL d   1      -5.513   1.659   2.111  0.00  0.00    -0.096 F 
ATOM     11  F3  UNL d   1      -5.812  -1.032   2.055  0.00  0.00    -0.097 F 
ATOM     12  F4  UNL d   1      -3.967  -2.650   3.246  0.00  0.00    -0.092 F 
ENDROOT
TORSDOF 0
ENDMDL
