MODEL 1
REMARK minimizedAffinity 10.5091591
REMARK minimizedRMSD -1
REMARK  0 active torsions:
REMARK  status: ('A' for Active; 'I' for Inactive)
ROOT
ATOM      1  C   UNL d   1       1.513  -0.727  -0.618  0.00  0.00     0.124 A 
ATOM      2  C1  UNL d   1       2.087  -1.844  -0.028  0.00  0.00     0.062 A 
ATOM      3  C2  UNL d   1       1.287  -2.902   0.394  0.00  0.00     0.162 A 
ATOM      4  C3  UNL d   1      -0.097  -2.848   0.226  0.00  0.00    -0.034 A 
ATOM      5  C4  UNL d   1      -0.667  -1.720  -0.366  0.00  0.00     0.162 A 
ATOM      6  C5  UNL d   1       0.137  -0.665  -0.786  0.00  0.00     0.062 A 
ATOM      7  F   UNL d   1      -0.419   0.414  -1.356  0.00  0.00    -0.097 F 
ATOM      8  F1  UNL d   1      -1.994  -1.635  -0.543  0.00  0.00    -0.096 F 
ATOM      9  I   UNL d   1      -1.297  -4.427   0.856  0.00  0.00    -0.060 I 
ATOM     10  F2  UNL d   1       1.868  -3.970   0.960  0.00  0.00    -0.096 F 
ATOM     11  F3  UNL d   1       3.416  -1.906   0.137  0.00  0.00    -0.097 F 
ATOM     12  F4  UNL d   1       2.286   0.290  -1.021  0.00  0.00    -0.092 F 
ENDROOT
TORSDOF 0
ENDMDL
