MODEL 1
REMARK minimizedAffinity 8.96827793
REMARK minimizedRMSD -1
REMARK  0 active torsions:
REMARK  status: ('A' for Active; 'I' for Inactive)
ROOT
ATOM      1  C   UNL d   1       0.956   1.235  -1.783  0.00  0.00     0.124 A 
ATOM      2  C1  UNL d   1       1.005   0.230  -0.827  0.00  0.00     0.062 A 
ATOM      3  C2  UNL d   1       0.941  -1.106  -1.212  0.00  0.00     0.162 A 
ATOM      4  C3  UNL d   1       0.828  -1.445  -2.560  0.00  0.00    -0.034 A 
ATOM      5  C4  UNL d   1       0.778  -0.429  -3.516  0.00  0.00     0.162 A 
ATOM      6  C5  UNL d   1       0.842   0.905  -3.126  0.00  0.00     0.062 A 
ATOM      7  F   UNL d   1       0.794   1.874  -4.052  0.00  0.00    -0.097 F 
ATOM      8  F1  UNL d   1       0.669  -0.720  -4.821  0.00  0.00    -0.096 F 
ATOM      9  I   UNL d   1       0.732  -3.442  -3.139  0.00  0.00    -0.060 I 
ATOM     10  F2  UNL d   1       0.991  -2.056  -0.266  0.00  0.00    -0.096 F 
ATOM     11  F3  UNL d   1       1.114   0.547   0.471  0.00  0.00    -0.097 F 
ATOM     12  F4  UNL d   1       1.016   2.520  -1.410  0.00  0.00    -0.092 F 
ENDROOT
TORSDOF 0
ENDMDL
