MODEL 1
REMARK minimizedAffinity 10.9589806
REMARK minimizedRMSD -1
REMARK  0 active torsions:
REMARK  status: ('A' for Active; 'I' for Inactive)
ROOT
ATOM      1  C   UNL d   1       1.082  -0.760  -3.106  0.00  0.00     0.124 A 
ATOM      2  C1  UNL d   1       1.071  -0.674  -1.721  0.00  0.00     0.062 A 
ATOM      3  C2  UNL d   1       0.971   0.566  -1.097  0.00  0.00     0.162 A 
ATOM      4  C3  UNL d   1       0.879   1.731  -1.858  0.00  0.00    -0.034 A 
ATOM      5  C4  UNL d   1       0.892   1.637  -3.251  0.00  0.00     0.162 A 
ATOM      6  C5  UNL d   1       0.993   0.395  -3.870  0.00  0.00     0.062 A 
ATOM      7  F   UNL d   1       1.003   0.314  -5.208  0.00  0.00    -0.097 F 
ATOM      8  F1  UNL d   1       0.806   2.738  -4.013  0.00  0.00    -0.096 F 
ATOM      9  I   UNL d   1       0.729   3.588  -0.929  0.00  0.00    -0.060 I 
ATOM     10  F2  UNL d   1       0.962   0.619   0.243  0.00  0.00    -0.096 F 
ATOM     11  F3  UNL d   1       1.159  -1.789  -0.981  0.00  0.00    -0.097 F 
ATOM     12  F4  UNL d   1       1.180  -1.954  -3.704  0.00  0.00    -0.092 F 
ENDROOT
TORSDOF 0
ENDMDL
