MODEL 1
REMARK minimizedAffinity 5.29652023
REMARK minimizedRMSD -1
REMARK  0 active torsions:
REMARK  status: ('A' for Active; 'I' for Inactive)
ROOT
ATOM      1  C   UNL d   1       1.002  -1.421  -2.742  0.00  0.00     0.124 A 
ATOM      2  C1  UNL d   1       0.868  -0.334  -3.594  0.00  0.00     0.062 A 
ATOM      3  C2  UNL d   1       0.908   0.962  -3.088  0.00  0.00     0.162 A 
ATOM      4  C3  UNL d   1       1.084   1.178  -1.721  0.00  0.00    -0.034 A 
ATOM      5  C4  UNL d   1       1.217   0.080  -0.870  0.00  0.00     0.162 A 
ATOM      6  C5  UNL d   1       1.177  -1.213  -1.381  0.00  0.00     0.062 A 
ATOM      7  F   UNL d   1       1.306  -2.262  -0.555  0.00  0.00    -0.097 F 
ATOM      8  F1  UNL d   1       1.388   0.253   0.449  0.00  0.00    -0.096 F 
ATOM      9  I   UNL d   1       1.144   3.115  -0.961  0.00  0.00    -0.060 I 
ATOM     10  F2  UNL d   1       0.775   1.993  -3.935  0.00  0.00    -0.096 F 
ATOM     11  F3  UNL d   1       0.698  -0.533  -4.909  0.00  0.00    -0.097 F 
ATOM     12  F4  UNL d   1       0.962  -2.667  -3.231  0.00  0.00    -0.092 F 
ENDROOT
TORSDOF 0
ENDMDL
