MODEL 1
REMARK minimizedAffinity 8.80393696
REMARK minimizedRMSD -1
REMARK  0 active torsions:
REMARK  status: ('A' for Active; 'I' for Inactive)
ROOT
ATOM      1  C   UNL d   1       0.964  -1.741  -2.154  0.00  0.00     0.124 A 
ATOM      2  C1  UNL d   1       0.620  -0.664  -1.348  0.00  0.00     0.062 A 
ATOM      3  C2  UNL d   1       0.765   0.637  -1.820  0.00  0.00     0.162 A 
ATOM      4  C3  UNL d   1       1.255   0.870  -3.105  0.00  0.00    -0.034 A 
ATOM      5  C4  UNL d   1       1.599  -0.218  -3.909  0.00  0.00     0.162 A 
ATOM      6  C5  UNL d   1       1.453  -1.517  -3.433  0.00  0.00     0.062 A 
ATOM      7  F   UNL d   1       1.786  -2.556  -4.213  0.00  0.00    -0.097 F 
ATOM      8  F1  UNL d   1       2.073  -0.030  -5.150  0.00  0.00    -0.096 F 
ATOM      9  I   UNL d   1       1.472   2.815  -3.813  0.00  0.00    -0.060 I 
ATOM     10  F2  UNL d   1       0.424   1.658  -1.019  0.00  0.00    -0.096 F 
ATOM     11  F3  UNL d   1       0.148  -0.878  -0.111  0.00  0.00    -0.097 F 
ATOM     12  F4  UNL d   1       0.825  -2.992  -1.697  0.00  0.00    -0.092 F 
ENDROOT
TORSDOF 0
ENDMDL
