MODEL 1
REMARK minimizedAffinity 5.84110594
REMARK minimizedRMSD -1
REMARK  0 active torsions:
REMARK  status: ('A' for Active; 'I' for Inactive)
ROOT
ATOM      1  C   UNL d   1       1.298  -0.423  -3.886  0.00  0.00     0.124 A 
ATOM      2  C1  UNL d   1       1.417  -1.748  -3.490  0.00  0.00     0.062 A 
ATOM      3  C2  UNL d   1       1.096  -2.122  -2.188  0.00  0.00     0.162 A 
ATOM      4  C3  UNL d   1       0.653  -1.168  -1.272  0.00  0.00    -0.034 A 
ATOM      5  C4  UNL d   1       0.537   0.163  -1.676  0.00  0.00     0.162 A 
ATOM      6  C5  UNL d   1       0.858   0.531  -2.979  0.00  0.00     0.062 A 
ATOM      7  F   UNL d   1       0.743   1.811  -3.359  0.00  0.00    -0.097 F 
ATOM      8  F1  UNL d   1       0.113   1.105  -0.821  0.00  0.00    -0.096 F 
ATOM      9  I   UNL d   1       0.173  -1.722   0.676  0.00  0.00    -0.060 I 
ATOM     10  F2  UNL d   1       1.221  -3.409  -1.833  0.00  0.00    -0.096 F 
ATOM     11  F3  UNL d   1       1.842  -2.672  -4.364  0.00  0.00    -0.097 F 
ATOM     12  F4  UNL d   1       1.608  -0.067  -5.139  0.00  0.00    -0.092 F 
ENDROOT
TORSDOF 0
ENDMDL
