MODEL 1
REMARK minimizedAffinity 14.1462889
REMARK minimizedRMSD -1
REMARK  0 active torsions:
REMARK  status: ('A' for Active; 'I' for Inactive)
ROOT
ATOM      1  C   UNL d   1       1.457   3.082  -5.253  0.00  0.00     0.124 A 
ATOM      2  C1  UNL d   1       2.533   3.885  -5.607  0.00  0.00     0.062 A 
ATOM      3  C2  UNL d   1       3.829   3.381  -5.555  0.00  0.00     0.162 A 
ATOM      4  C3  UNL d   1       4.058   2.067  -5.148  0.00  0.00    -0.034 A 
ATOM      5  C4  UNL d   1       2.971   1.265  -4.793  0.00  0.00     0.162 A 
ATOM      6  C5  UNL d   1       1.678   1.773  -4.846  0.00  0.00     0.062 A 
ATOM      7  F   UNL d   1       0.640   0.996  -4.503  0.00  0.00    -0.097 F 
ATOM      8  F1  UNL d   1       3.156  -0.003  -4.397  0.00  0.00    -0.096 F 
ATOM      9  I   UNL d   1       5.995   1.310  -5.069  0.00  0.00    -0.060 I 
ATOM     10  F2  UNL d   1       4.849   4.180  -5.903  0.00  0.00    -0.096 F 
ATOM     11  F3  UNL d   1       2.322   5.149  -5.999  0.00  0.00    -0.097 F 
ATOM     12  F4  UNL d   1       0.211   3.569  -5.303  0.00  0.00    -0.092 F 
ENDROOT
TORSDOF 0
ENDMDL
