MODEL 1
REMARK minimizedAffinity 15.3427868
REMARK minimizedRMSD -1
REMARK  0 active torsions:
REMARK  status: ('A' for Active; 'I' for Inactive)
ROOT
ATOM      1  C   UNL d   1       1.278  -1.389  -4.050  0.00  0.00     0.124 A 
ATOM      2  C1  UNL d   1       0.664  -1.658  -2.834  0.00  0.00     0.062 A 
ATOM      3  C2  UNL d   1       0.602  -0.677  -1.849  0.00  0.00     0.162 A 
ATOM      4  C3  UNL d   1       1.155   0.584  -2.075  0.00  0.00    -0.034 A 
ATOM      5  C4  UNL d   1       1.771   0.846  -3.300  0.00  0.00     0.162 A 
ATOM      6  C5  UNL d   1       1.831  -0.138  -4.281  0.00  0.00     0.062 A 
ATOM      7  F   UNL d   1       2.424   0.124  -5.455  0.00  0.00    -0.097 F 
ATOM      8  F1  UNL d   1       2.313   2.048  -3.551  0.00  0.00    -0.096 F 
ATOM      9  I   UNL d   1       1.064   2.053  -0.605  0.00  0.00    -0.060 I 
ATOM     10  F2  UNL d   1       0.003  -0.965  -0.684  0.00  0.00    -0.096 F 
ATOM     11  F3  UNL d   1       0.130  -2.867  -2.607  0.00  0.00    -0.097 F 
ATOM     12  F4  UNL d   1       1.337  -2.336  -4.995  0.00  0.00    -0.092 F 
ENDROOT
TORSDOF 0
ENDMDL
