MODEL 1
REMARK minimizedAffinity 10.0829649
REMARK minimizedRMSD -1
REMARK  1 active torsions:
REMARK  status: ('A' for Active; 'I' for Inactive)
REMARK    1  A    between atoms: C1_2  and  C2_3 
ROOT
ATOM      1  C2  UNL d   1       1.481   0.143   0.270  0.00  0.00    -0.077 A 
ATOM      2  C3  UNL d   1       1.134  -0.078   1.610  0.00  0.00     0.002 A 
ATOM      3  C4  UNL d   1      -0.090   0.377   2.107  0.00  0.00     0.002 A 
ATOM      4  C5  UNL d   1      -0.976   1.051   1.270  0.00  0.00    -0.004 A 
ATOM      5  C6  UNL d   1      -0.638   1.278  -0.064  0.00  0.00     0.002 A 
ATOM      6  C7  UNL d   1       0.584   0.825  -0.562  0.00  0.00     0.002 A 
ENDROOT
BRANCH   1   7
ATOM      7  C1  UNL d   1       2.779  -0.390  -0.280  0.00  0.00     0.055 C 
ATOM      8  C   UNL d   1       3.842   0.697  -0.340  0.00  0.00     0.019 C 
ENDBRANCH   1   7
TORSDOF 1
ENDMDL
