MODEL 1
REMARK minimizedAffinity 6.67721272
REMARK minimizedRMSD -1
REMARK  1 active torsions:
REMARK  status: ('A' for Active; 'I' for Inactive)
REMARK    1  A    between atoms: C1_2  and  C2_3 
ROOT
ATOM      1  C2  UNL d   1       1.737   0.716   0.889  0.00  0.00    -0.077 A 
ATOM      2  C3  UNL d   1       1.318  -0.326   0.050  0.00  0.00     0.002 A 
ATOM      3  C4  UNL d   1       2.169  -0.822  -0.938  0.00  0.00     0.002 A 
ATOM      4  C5  UNL d   1       3.446  -0.286  -1.095  0.00  0.00    -0.004 A 
ATOM      5  C6  UNL d   1       3.871   0.751  -0.267  0.00  0.00     0.002 A 
ATOM      6  C7  UNL d   1       3.021   1.250   0.722  0.00  0.00     0.002 A 
ENDROOT
BRANCH   1   7
ATOM      7  C1  UNL d   1       0.839   1.220   1.989  0.00  0.00     0.055 C 
ATOM      8  C   UNL d   1      -0.061   2.344   1.496  0.00  0.00     0.019 C 
ENDBRANCH   1   7
TORSDOF 1
ENDMDL
