MODEL 1
REMARK minimizedAffinity 3.11013913
REMARK minimizedRMSD -1
REMARK  1 active torsions:
REMARK  status: ('A' for Active; 'I' for Inactive)
REMARK    1  A    between atoms: C1_2  and  C2_3 
ROOT
ATOM      1  C2  UNL d   1      -4.509   1.488  -2.783  0.00  0.00    -0.077 A 
ATOM      2  C3  UNL d   1      -4.954   1.737  -4.089  0.00  0.00     0.002 A 
ATOM      3  C4  UNL d   1      -4.120   1.483  -5.180  0.00  0.00     0.002 A 
ATOM      4  C5  UNL d   1      -2.839   0.976  -4.977  0.00  0.00    -0.004 A 
ATOM      5  C6  UNL d   1      -2.386   0.728  -3.682  0.00  0.00     0.002 A 
ATOM      6  C7  UNL d   1      -3.217   0.982  -2.590  0.00  0.00     0.002 A 
ENDROOT
BRANCH   1   7
ATOM      7  C1  UNL d   1      -5.424   1.715  -1.608  0.00  0.00     0.055 C 
ATOM      8  C   UNL d   1      -5.066   0.802  -0.444  0.00  0.00     0.019 C 
ENDBRANCH   1   7
TORSDOF 1
ENDMDL
