MODEL 1
REMARK minimizedAffinity 8.47072601
REMARK minimizedRMSD -1
REMARK  1 active torsions:
REMARK  status: ('A' for Active; 'I' for Inactive)
REMARK    1  A    between atoms: C1_2  and  C2_3 
ROOT
ATOM      1  C2  UNL d   1      -1.026   1.647  -0.202  0.00  0.00    -0.077 A 
ATOM      2  C3  UNL d   1      -2.271   1.057   0.058  0.00  0.00     0.002 A 
ATOM      3  C4  UNL d   1      -3.171   1.666   0.935  0.00  0.00     0.002 A 
ATOM      4  C5  UNL d   1      -2.838   2.868   1.556  0.00  0.00    -0.004 A 
ATOM      5  C6  UNL d   1      -1.601   3.460   1.306  0.00  0.00     0.002 A 
ATOM      6  C7  UNL d   1      -0.699   2.853   0.430  0.00  0.00     0.002 A 
ENDROOT
BRANCH   1   7
ATOM      7  C1  UNL d   1      -0.074   1.018  -1.185  0.00  0.00     0.055 C 
ATOM      8  C   UNL d   1      -0.791   0.602  -2.461  0.00  0.00     0.019 C 
ENDBRANCH   1   7
TORSDOF 1
ENDMDL
