MODEL 1
REMARK minimizedAffinity 12.3677454
REMARK minimizedRMSD -1
REMARK  1 active torsions:
REMARK  status: ('A' for Active; 'I' for Inactive)
REMARK    1  A    between atoms: C1_2  and  C2_3 
ROOT
ATOM      1  C2  UNL d   1      -5.279   2.492  -4.007  0.00  0.00    -0.077 A 
ATOM      2  C3  UNL d   1      -3.920   2.581  -4.337  0.00  0.00     0.002 A 
ATOM      3  C4  UNL d   1      -3.265   1.499  -4.929  0.00  0.00     0.002 A 
ATOM      4  C5  UNL d   1      -3.962   0.323  -5.198  0.00  0.00    -0.004 A 
ATOM      5  C6  UNL d   1      -5.313   0.224  -4.872  0.00  0.00     0.002 A 
ATOM      6  C7  UNL d   1      -5.970   1.304  -4.279  0.00  0.00     0.002 A 
ENDROOT
BRANCH   1   7
ATOM      7  C1  UNL d   1      -6.000   3.675  -3.414  0.00  0.00     0.055 C 
ATOM      8  C   UNL d   1      -5.999   4.859  -4.369  0.00  0.00     0.019 C 
ENDBRANCH   1   7
TORSDOF 1
ENDMDL
