MODEL 1
REMARK minimizedAffinity 5.00307465
REMARK minimizedRMSD -1
REMARK  1 active torsions:
REMARK  status: ('A' for Active; 'I' for Inactive)
REMARK    1  A    between atoms: C1_2  and  C2_3 
ROOT
ATOM      1  C2  UNL d   1      -4.648   1.487  -3.825  0.00  0.00    -0.077 A 
ATOM      2  C3  UNL d   1      -4.329   0.680  -2.724  0.00  0.00     0.002 A 
ATOM      3  C4  UNL d   1      -3.106   0.008  -2.671  0.00  0.00     0.002 A 
ATOM      4  C5  UNL d   1      -2.192   0.139  -3.715  0.00  0.00    -0.004 A 
ATOM      5  C6  UNL d   1      -2.501   0.937  -4.815  0.00  0.00     0.002 A 
ATOM      6  C7  UNL d   1      -3.723   1.609  -4.870  0.00  0.00     0.002 A 
ENDROOT
BRANCH   1   7
ATOM      7  C1  UNL d   1      -5.945   2.252  -3.860  0.00  0.00     0.055 C 
ATOM      8  C   UNL d   1      -5.701   3.751  -3.966  0.00  0.00     0.019 C 
ENDBRANCH   1   7
TORSDOF 1
ENDMDL
