MODEL 1
REMARK minimizedAffinity 8.15817356
REMARK minimizedRMSD -1
REMARK  0 active torsions:
REMARK  status: ('A' for Active; 'I' for Inactive)
ROOT
ATOM      1  C2' OXE d   1      -4.056  -0.259  -1.803  0.00  0.00     0.078 C 
ATOM      2  C1' OXE d   1      -2.723   2.183  -1.421  0.00  0.00     0.078 C 
ATOM      3  C1  OXE d   1      -2.094   0.940  -0.844  0.00  0.00    -0.078 A 
ATOM      4  C2  OXE d   1      -2.776  -0.243  -0.996  0.00  0.00    -0.078 A 
ATOM      5  C3  OXE d   1      -2.213  -1.428  -0.530  0.00  0.00     0.003 A 
ATOM      6  C4  OXE d   1      -1.034  -1.404   0.225  0.00  0.00    -0.002 A 
ATOM      7  C5  OXE d   1      -0.343  -0.204   0.425  0.00  0.00    -0.002 A 
ATOM      8  C6  OXE d   1      -0.836   0.968  -0.138  0.00  0.00     0.003 A 
ENDROOT
TORSDOF 0
ENDMDL
