MODEL 1
REMARK minimizedAffinity 8.68194866
REMARK minimizedRMSD -1
REMARK  0 active torsions:
REMARK  status: ('A' for Active; 'I' for Inactive)
ROOT
ATOM      1  C2' OXE d   1      -1.091  -1.325   2.050  0.00  0.00     0.078 C 
ATOM      2  C1' OXE d   1      -2.266  -2.670   4.215  0.00  0.00     0.078 C 
ATOM      3  C1  OXE d   1      -0.766  -2.743   4.072  0.00  0.00    -0.078 A 
ATOM      4  C2  OXE d   1      -0.204  -2.120   2.983  0.00  0.00    -0.078 A 
ATOM      5  C3  OXE d   1       1.179  -2.110   2.833  0.00  0.00     0.003 A 
ATOM      6  C4  OXE d   1       1.991  -2.857   3.696  0.00  0.00    -0.002 A 
ATOM      7  C5  OXE d   1       1.435  -3.531   4.788  0.00  0.00    -0.002 A 
ATOM      8  C6  OXE d   1       0.066  -3.449   5.015  0.00  0.00     0.003 A 
ENDROOT
TORSDOF 0
ENDMDL
