MODEL 1
REMARK minimizedAffinity 5.24024916
REMARK minimizedRMSD -1
REMARK  0 active torsions:
REMARK  status: ('A' for Active; 'I' for Inactive)
ROOT
ATOM      1  C2' OXE d   1      -4.152  -2.291  -5.850  0.00  0.00     0.078 C 
ATOM      2  C1' OXE d   1      -5.417  -4.797  -5.826  0.00  0.00     0.078 C 
ATOM      3  C1  OXE d   1      -3.909  -4.770  -5.863  0.00  0.00    -0.078 A 
ATOM      4  C2  OXE d   1      -3.300  -3.540  -5.922  0.00  0.00    -0.078 A 
ATOM      5  C3  OXE d   1      -1.911  -3.457  -5.902  0.00  0.00     0.003 A 
ATOM      6  C4  OXE d   1      -1.130  -4.616  -5.978  0.00  0.00    -0.002 A 
ATOM      7  C5  OXE d   1      -1.731  -5.879  -5.960  0.00  0.00    -0.002 A 
ATOM      8  C6  OXE d   1      -3.115  -5.974  -5.859  0.00  0.00     0.003 A 
ENDROOT
TORSDOF 0
ENDMDL
