MODEL 1
REMARK minimizedAffinity 4.49443531
REMARK minimizedRMSD -1
REMARK  0 active torsions:
REMARK  status: ('A' for Active; 'I' for Inactive)
ROOT
ATOM      1  C2' OXE d   1      -5.334  -4.842  -5.986  0.00  0.00     0.078 C 
ATOM      2  C1' OXE d   1      -4.026  -2.359  -5.957  0.00  0.00     0.078 C 
ATOM      3  C1  OXE d   1      -3.173  -3.603  -5.952  0.00  0.00    -0.078 A 
ATOM      4  C2  OXE d   1      -3.823  -4.814  -5.919  0.00  0.00    -0.078 A 
ATOM      5  C3  OXE d   1      -3.085  -5.993  -5.969  0.00  0.00     0.003 A 
ATOM      6  C4  OXE d   1      -1.687  -5.959  -5.896  0.00  0.00    -0.002 A 
ATOM      7  C5  OXE d   1      -1.007  -4.736  -5.889  0.00  0.00    -0.002 A 
ATOM      8  C6  OXE d   1      -1.732  -3.552  -5.959  0.00  0.00     0.003 A 
ENDROOT
TORSDOF 0
ENDMDL
