MODEL 1
REMARK minimizedAffinity 2.15312123
REMARK minimizedRMSD -1
REMARK  0 active torsions:
REMARK  status: ('A' for Active; 'I' for Inactive)
ROOT
ATOM      1  C2' OXE d   1      -3.768   3.774  -1.363  0.00  0.00     0.078 C 
ATOM      2  C1' OXE d   1      -1.462   2.395  -0.550  0.00  0.00     0.078 C 
ATOM      3  C1  OXE d   1      -1.428   3.095  -1.885  0.00  0.00    -0.078 A 
ATOM      4  C2  OXE d   1      -2.577   3.728  -2.296  0.00  0.00    -0.078 A 
ATOM      5  C3  OXE d   1      -2.582   4.436  -3.495  0.00  0.00     0.003 A 
ATOM      6  C4  OXE d   1      -1.480   4.381  -4.356  0.00  0.00    -0.002 A 
ATOM      7  C5  OXE d   1      -0.314   3.708  -3.975  0.00  0.00    -0.002 A 
ATOM      8  C6  OXE d   1      -0.257   3.098  -2.727  0.00  0.00     0.003 A 
ENDROOT
TORSDOF 0
ENDMDL
