MODEL 1
REMARK minimizedAffinity 3.41033888
REMARK minimizedRMSD -1
REMARK  0 active torsions:
REMARK  status: ('A' for Active; 'I' for Inactive)
ROOT
ATOM      1  C2' OXE d   1       0.745  -5.248  -2.713  0.00  0.00     0.078 C 
ATOM      2  C1' OXE d   1      -1.875  -5.627  -1.778  0.00  0.00     0.078 C 
ATOM      3  C1  OXE d   1      -1.640  -5.710  -3.266  0.00  0.00    -0.078 A 
ATOM      4  C2  OXE d   1      -0.363  -5.477  -3.718  0.00  0.00    -0.078 A 
ATOM      5  C3  OXE d   1      -0.081  -5.596  -5.076  0.00  0.00     0.003 A 
ATOM      6  C4  OXE d   1      -1.113  -5.798  -6.000  0.00  0.00    -0.002 A 
ATOM      7  C5  OXE d   1      -2.427  -5.998  -5.564  0.00  0.00    -0.002 A 
ATOM      8  C6  OXE d   1      -2.699  -6.000  -4.200  0.00  0.00     0.003 A 
ENDROOT
TORSDOF 0
ENDMDL
