MODEL 1
REMARK minimizedAffinity 15.4321604
REMARK minimizedRMSD -1
REMARK  0 active torsions:
REMARK  status: ('A' for Active; 'I' for Inactive)
ROOT
ATOM      1  C2' OXE d   1      -2.750  -2.941  -2.836  0.00  0.00     0.078 C 
ATOM      2  C1' OXE d   1      -3.701  -2.923  -5.477  0.00  0.00     0.078 C 
ATOM      3  C1  OXE d   1      -2.744  -4.020  -5.081  0.00  0.00    -0.078 A 
ATOM      4  C2  OXE d   1      -2.248  -3.994  -3.800  0.00  0.00    -0.078 A 
ATOM      5  C3  OXE d   1      -1.405  -5.013  -3.366  0.00  0.00     0.003 A 
ATOM      6  C4  OXE d   1      -0.937  -5.977  -4.268  0.00  0.00    -0.002 A 
ATOM      7  C5  OXE d   1      -1.398  -5.998  -5.588  0.00  0.00    -0.002 A 
ATOM      8  C6  OXE d   1      -2.333  -5.054  -5.998  0.00  0.00     0.003 A 
ENDROOT
TORSDOF 0
ENDMDL
