MODEL 1
REMARK minimizedAffinity 12.9523115
REMARK minimizedRMSD -1
REMARK  0 active torsions:
REMARK  status: ('A' for Active; 'I' for Inactive)
ROOT
ATOM      1  C2' OXE d   1       2.289   1.507   1.107  0.00  0.00     0.078 C 
ATOM      2  C1' OXE d   1       1.051  -0.849   0.213  0.00  0.00     0.078 C 
ATOM      3  C1  OXE d   1       2.441  -0.959   0.787  0.00  0.00    -0.078 A 
ATOM      4  C2  OXE d   1       3.058   0.205   1.179  0.00  0.00    -0.078 A 
ATOM      5  C3  OXE d   1       4.319   0.154   1.765  0.00  0.00     0.003 A 
ATOM      6  C4  OXE d   1       5.027  -1.053   1.818  0.00  0.00    -0.002 A 
ATOM      7  C5  OXE d   1       4.434  -2.244   1.388  0.00  0.00    -0.002 A 
ATOM      8  C6  OXE d   1       3.128  -2.221   0.910  0.00  0.00     0.003 A 
ENDROOT
TORSDOF 0
ENDMDL
