MODEL 1
REMARK minimizedAffinity 9.43305111
REMARK minimizedRMSD -1
REMARK  0 active torsions:
REMARK  status: ('A' for Active; 'I' for Inactive)
ROOT
ATOM      1  C2' OXE d   1      -3.712  -0.038  -1.329  0.00  0.00     0.078 C 
ATOM      2  C1' OXE d   1      -2.219   2.274  -0.775  0.00  0.00     0.078 C 
ATOM      3  C1  OXE d   1      -1.609   0.941  -0.420  0.00  0.00    -0.078 A 
ATOM      4  C2  OXE d   1      -2.366  -0.183  -0.652  0.00  0.00    -0.078 A 
ATOM      5  C3  OXE d   1      -1.829  -1.441  -0.394  0.00  0.00     0.003 A 
ATOM      6  C4  OXE d   1      -0.588  -1.565   0.242  0.00  0.00    -0.002 A 
ATOM      7  C5  OXE d   1       0.183  -0.432   0.523  0.00  0.00    -0.002 A 
ATOM      8  C6  OXE d   1      -0.294   0.823   0.160  0.00  0.00     0.003 A 
ENDROOT
TORSDOF 0
ENDMDL
