MODEL 1
REMARK minimizedAffinity 4.00983524
REMARK minimizedRMSD -1
REMARK  0 active torsions:
REMARK  status: ('A' for Active; 'I' for Inactive)
ROOT
ATOM      1  C2' OXE d   1      -1.789  -1.633   3.943  0.00  0.00     0.078 C 
ATOM      2  C1' OXE d   1      -1.675   0.392   2.003  0.00  0.00     0.078 C 
ATOM      3  C1  OXE d   1      -0.883  -0.867   1.753  0.00  0.00    -0.078 A 
ATOM      4  C2  OXE d   1      -0.907  -1.833   2.730  0.00  0.00    -0.078 A 
ATOM      5  C3  OXE d   1      -0.239  -3.037   2.526  0.00  0.00     0.003 A 
ATOM      6  C4  OXE d   1       0.583  -3.210   1.405  0.00  0.00    -0.002 A 
ATOM      7  C5  OXE d   1       0.654  -2.222   0.417  0.00  0.00    -0.002 A 
ATOM      8  C6  OXE d   1      -0.105  -1.065   0.555  0.00  0.00     0.003 A 
ENDROOT
TORSDOF 0
ENDMDL
