MODEL 1
REMARK minimizedAffinity 8.3234148
REMARK minimizedRMSD -1
REMARK  0 active torsions:
REMARK  status: ('A' for Active; 'I' for Inactive)
ROOT
ATOM      1  C2' OXE d   1      -1.896  -2.587   4.502  0.00  0.00     0.078 C 
ATOM      2  C1' OXE d   1      -0.742  -1.556   2.160  0.00  0.00     0.078 C 
ATOM      3  C1  OXE d   1       0.121  -2.414   3.051  0.00  0.00    -0.078 A 
ATOM      4  C2  OXE d   1      -0.438  -2.875   4.219  0.00  0.00    -0.078 A 
ATOM      5  C3  OXE d   1       0.297  -3.715   5.050  0.00  0.00     0.003 A 
ATOM      6  C4  OXE d   1       1.649  -3.969   4.786  0.00  0.00    -0.002 A 
ATOM      7  C5  OXE d   1       2.249  -3.476   3.623  0.00  0.00    -0.002 A 
ATOM      8  C6  OXE d   1       1.489  -2.734   2.725  0.00  0.00     0.003 A 
ENDROOT
TORSDOF 0
ENDMDL
