MODEL 1
REMARK minimizedAffinity 0.135614231
REMARK minimizedRMSD -1
REMARK  0 active torsions:
REMARK  status: ('A' for Active; 'I' for Inactive)
ROOT
ATOM      1  C2' OXE d   1      -5.700  -0.716  -4.476  0.00  0.00     0.078 C 
ATOM      2  C1' OXE d   1      -4.983  -1.335  -1.834  0.00  0.00     0.078 C 
ATOM      3  C1  OXE d   1      -4.273  -2.068  -2.945  0.00  0.00    -0.078 A 
ATOM      4  C2  OXE d   1      -4.663  -1.792  -4.233  0.00  0.00    -0.078 A 
ATOM      5  C3  OXE d   1      -4.003  -2.399  -5.298  0.00  0.00     0.003 A 
ATOM      6  C4  OXE d   1      -3.053  -3.401  -5.064  0.00  0.00    -0.002 A 
ATOM      7  C5  OXE d   1      -2.670  -3.725  -3.759  0.00  0.00    -0.002 A 
ATOM      8  C6  OXE d   1      -3.238  -3.039  -2.691  0.00  0.00     0.003 A 
ENDROOT
TORSDOF 0
ENDMDL
