MODEL 1
REMARK minimizedAffinity 2.10671306
REMARK minimizedRMSD -1
REMARK  0 active torsions:
REMARK  status: ('A' for Active; 'I' for Inactive)
ROOT
ATOM      1  C2' OXE d   1      -5.961  -2.262  -5.943  0.00  0.00     0.078 C 
ATOM      2  C1' OXE d   1      -3.155  -2.203  -5.938  0.00  0.00     0.078 C 
ATOM      3  C1  OXE d   1      -3.830  -3.551  -5.957  0.00  0.00    -0.078 A 
ATOM      4  C2  OXE d   1      -5.203  -3.571  -5.912  0.00  0.00    -0.078 A 
ATOM      5  C3  OXE d   1      -5.878  -4.787  -5.982  0.00  0.00     0.003 A 
ATOM      6  C4  OXE d   1      -5.169  -5.994  -5.943  0.00  0.00    -0.002 A 
ATOM      7  C5  OXE d   1      -3.770  -5.997  -5.948  0.00  0.00    -0.002 A 
ATOM      8  C6  OXE d   1      -3.087  -4.787  -5.998  0.00  0.00     0.003 A 
ENDROOT
TORSDOF 0
ENDMDL
