MODEL 1
REMARK minimizedAffinity 16.9608002
REMARK minimizedRMSD -1
REMARK  0 active torsions:
REMARK  status: ('A' for Active; 'I' for Inactive)
ROOT
ATOM      1  C2' OXE d   1      -0.002  -1.831   0.945  0.00  0.00     0.078 C 
ATOM      2  C1' OXE d   1       2.591  -2.836   1.329  0.00  0.00     0.078 C 
ATOM      3  C1  OXE d   1       1.591  -3.026   2.442  0.00  0.00    -0.078 A 
ATOM      4  C2  OXE d   1       0.338  -2.490   2.265  0.00  0.00    -0.078 A 
ATOM      5  C3  OXE d   1      -0.639  -2.684   3.237  0.00  0.00     0.003 A 
ATOM      6  C4  OXE d   1      -0.313  -3.286   4.459  0.00  0.00    -0.002 A 
ATOM      7  C5  OXE d   1       0.968  -3.804   4.676  0.00  0.00    -0.002 A 
ATOM      8  C6  OXE d   1       1.917  -3.720   3.663  0.00  0.00     0.003 A 
ENDROOT
TORSDOF 0
ENDMDL
