MODEL 1
REMARK minimizedAffinity 2.43694639
REMARK minimizedRMSD -1
REMARK  0 active torsions:
REMARK  status: ('A' for Active; 'I' for Inactive)
ROOT
ATOM      1  C2' OXE d   1      -4.303   0.693  -5.996  0.00  0.00     0.078 C 
ATOM      2  C1' OXE d   1      -5.998  -1.544  -5.943  0.00  0.00     0.078 C 
ATOM      3  C1  OXE d   1      -5.559  -0.962  -4.622  0.00  0.00    -0.078 A 
ATOM      4  C2  OXE d   1      -4.692   0.104  -4.658  0.00  0.00    -0.078 A 
ATOM      5  C3  OXE d   1      -4.300   0.713  -3.470  0.00  0.00     0.003 A 
ATOM      6  C4  OXE d   1      -4.656   0.156  -2.236  0.00  0.00    -0.002 A 
ATOM      7  C5  OXE d   1      -5.506  -0.954  -2.177  0.00  0.00    -0.002 A 
ATOM      8  C6  OXE d   1      -5.999  -1.498  -3.358  0.00  0.00     0.003 A 
ENDROOT
TORSDOF 0
ENDMDL
