MODEL 1
REMARK minimizedAffinity 6.60058546
REMARK minimizedRMSD -1
REMARK  0 active torsions:
REMARK  status: ('A' for Active; 'I' for Inactive)
ROOT
ATOM      1  C2' OXE d   1      -4.117  -5.998  -3.050  0.00  0.00     0.078 C 
ATOM      2  C1' OXE d   1      -4.259  -5.999  -5.854  0.00  0.00     0.078 C 
ATOM      3  C1  OXE d   1      -2.893  -5.929  -5.219  0.00  0.00    -0.078 A 
ATOM      4  C2  OXE d   1      -2.835  -5.882  -3.847  0.00  0.00    -0.078 A 
ATOM      5  C3  OXE d   1      -1.598  -5.872  -3.209  0.00  0.00     0.003 A 
ATOM      6  C4  OXE d   1      -0.418  -5.755  -3.953  0.00  0.00    -0.002 A 
ATOM      7  C5  OXE d   1      -0.456  -5.761  -5.351  0.00  0.00    -0.002 A 
ATOM      8  C6  OXE d   1      -1.680  -5.890  -5.998  0.00  0.00     0.003 A 
ENDROOT
TORSDOF 0
ENDMDL
