MODEL 1
REMARK minimizedAffinity -0.860768557
REMARK minimizedRMSD -1
REMARK  0 active torsions:
REMARK  status: ('A' for Active; 'I' for Inactive)
ROOT
ATOM      1  C2' OXE d   1      -4.518  -2.253  -5.954  0.00  0.00     0.078 C 
ATOM      2  C1' OXE d   1      -5.952  -4.666  -5.984  0.00  0.00     0.078 C 
ATOM      3  C1  OXE d   1      -4.446  -4.743  -5.964  0.00  0.00    -0.078 A 
ATOM      4  C2  OXE d   1      -3.751  -3.558  -5.997  0.00  0.00    -0.078 A 
ATOM      5  C3  OXE d   1      -2.361  -3.571  -5.925  0.00  0.00     0.003 A 
ATOM      6  C4  OXE d   1      -1.660  -4.781  -5.975  0.00  0.00    -0.002 A 
ATOM      7  C5  OXE d   1      -2.347  -6.000  -5.982  0.00  0.00    -0.002 A 
ATOM      8  C6  OXE d   1      -3.737  -5.999  -5.934  0.00  0.00     0.003 A 
ENDROOT
TORSDOF 0
ENDMDL
