MODEL 1
REMARK minimizedAffinity 2.56718516
REMARK minimizedRMSD -1
REMARK  0 active torsions:
REMARK  status: ('A' for Active; 'I' for Inactive)
ROOT
ATOM      1  C2' OXE d   1       4.974  -0.780   1.687  0.00  0.00     0.078 C 
ATOM      2  C1' OXE d   1       3.448  -2.757   0.404  0.00  0.00     0.078 C 
ATOM      3  C1  OXE d   1       2.859  -1.372   0.511  0.00  0.00    -0.078 A 
ATOM      4  C2  OXE d   1       3.592  -0.423   1.181  0.00  0.00    -0.078 A 
ATOM      5  C3  OXE d   1       3.120   0.884   1.261  0.00  0.00     0.003 A 
ATOM      6  C4  OXE d   1       1.837   1.203   0.799  0.00  0.00    -0.002 A 
ATOM      7  C5  OXE d   1       1.057   0.241   0.148  0.00  0.00    -0.002 A 
ATOM      8  C6  OXE d   1       1.570  -1.038  -0.041  0.00  0.00     0.003 A 
ENDROOT
TORSDOF 0
ENDMDL
