MODEL 1
REMARK minimizedAffinity 4.74283695
REMARK minimizedRMSD -1
REMARK  2 active torsions:
REMARK  status: ('A' for Active; 'I' for Inactive)
REMARK    1  A    between atoms: C2'_3  and  C1'_4 
REMARK    2  A    between atoms: C1'_4  and  C1_5 
ROOT
ATOM      1  C1  I4B d   1       0.956  -1.523   2.444  0.00  0.00    -0.075 A 
ATOM      2  C2  I4B d   1       2.032  -2.229   2.921  0.00  0.00     0.003 A 
ATOM      3  C3  I4B d   1       3.027  -2.701   2.031  0.00  0.00     0.002 A 
ATOM      4  C4  I4B d   1       2.881  -2.489   0.675  0.00  0.00    -0.004 A 
ATOM      5  C5  I4B d   1       1.802  -1.753   0.195  0.00  0.00     0.002 A 
ATOM      6  C6  I4B d   1       0.839  -1.256   1.086  0.00  0.00     0.003 A 
ENDROOT
BRANCH   1   7
ATOM      7  C1' I4B d   1      -0.092  -1.067   3.409  0.00  0.00     0.060 C 
BRANCH   7   8
ATOM      8  C2' I4B d   1      -0.530   0.324   3.000  0.00  0.00    -0.013 C 
ATOM      9  C4' I4B d   1      -1.942   0.604   3.444  0.00  0.00     0.013 C 
ATOM     10  C3' I4B d   1       0.431   1.307   3.600  0.00  0.00     0.013 C 
ENDBRANCH   7   8
ENDBRANCH   1   7
TORSDOF 2
ENDMDL
