MODEL 1
REMARK minimizedAffinity 7.18554211
REMARK minimizedRMSD -1
REMARK  2 active torsions:
REMARK  status: ('A' for Active; 'I' for Inactive)
REMARK    1  A    between atoms: C2'_3  and  C1'_4 
REMARK    2  A    between atoms: C1'_4  and  C1_5 
ROOT
ATOM      1  C1  I4B d   1       2.383   0.088  -0.733  0.00  0.00    -0.075 A 
ATOM      2  C2  I4B d   1       2.728   0.743   0.422  0.00  0.00     0.003 A 
ATOM      3  C3  I4B d   1       2.608   2.152   0.506  0.00  0.00     0.002 A 
ATOM      4  C4  I4B d   1       2.189   2.865  -0.598  0.00  0.00    -0.004 A 
ATOM      5  C5  I4B d   1       1.817   2.196  -1.761  0.00  0.00     0.002 A 
ATOM      6  C6  I4B d   1       1.903   0.798  -1.826  0.00  0.00     0.003 A 
ENDROOT
BRANCH   1   7
ATOM      7  C1' I4B d   1       2.554  -1.397  -0.798  0.00  0.00     0.060 C 
BRANCH   7   8
ATOM      8  C2' I4B d   1       3.676  -1.780   0.145  0.00  0.00    -0.013 C 
ATOM      9  C4' I4B d   1       3.425  -3.125   0.774  0.00  0.00     0.013 C 
ATOM     10  C3' I4B d   1       4.957  -1.777  -0.634  0.00  0.00     0.013 C 
ENDBRANCH   7   8
ENDBRANCH   1   7
TORSDOF 2
ENDMDL
