MODEL 1
REMARK minimizedAffinity 12.2215681
REMARK minimizedRMSD -1
REMARK  2 active torsions:
REMARK  status: ('A' for Active; 'I' for Inactive)
REMARK    1  A    between atoms: C2'_3  and  C1'_4 
REMARK    2  A    between atoms: C1'_4  and  C1_5 
ROOT
ATOM      1  C1  I4B d   1       1.465  -1.712   0.950  0.00  0.00    -0.075 A 
ATOM      2  C2  I4B d   1       0.527  -1.244   0.064  0.00  0.00     0.003 A 
ATOM      3  C3  I4B d   1       0.821  -1.182  -1.320  0.00  0.00     0.002 A 
ATOM      4  C4  I4B d   1       2.076  -1.548  -1.764  0.00  0.00    -0.004 A 
ATOM      5  C5  I4B d   1       3.018  -2.043  -0.868  0.00  0.00     0.002 A 
ATOM      6  C6  I4B d   1       2.707  -2.138   0.497  0.00  0.00     0.003 A 
ENDROOT
BRANCH   1   7
ATOM      7  C1' I4B d   1       1.132  -1.734   2.408  0.00  0.00     0.060 C 
BRANCH   7   8
ATOM      8  C2' I4B d   1       0.799  -0.317   2.832  0.00  0.00    -0.013 C 
ATOM      9  C4' I4B d   1      -0.537  -0.255   3.524  0.00  0.00     0.013 C 
ATOM     10  C3' I4B d   1       1.898   0.167   3.730  0.00  0.00     0.013 C 
ENDBRANCH   7   8
ENDBRANCH   1   7
TORSDOF 2
ENDMDL
