MODEL 1
REMARK minimizedAffinity 5.60276031
REMARK minimizedRMSD -1
REMARK  2 active torsions:
REMARK  status: ('A' for Active; 'I' for Inactive)
REMARK    1  A    between atoms: C2'_3  and  C1'_4 
REMARK    2  A    between atoms: C1'_4  and  C1_5 
ROOT
ATOM      1  C1  I4B d   1       0.231  -1.261   2.845  0.00  0.00    -0.075 A 
ATOM      2  C2  I4B d   1      -0.784  -0.342   2.943  0.00  0.00     0.003 A 
ATOM      3  C3  I4B d   1      -2.133  -0.757   2.833  0.00  0.00     0.002 A 
ATOM      4  C4  I4B d   1      -2.419  -2.082   2.577  0.00  0.00    -0.004 A 
ATOM      5  C5  I4B d   1      -1.389  -3.016   2.501  0.00  0.00     0.002 A 
ATOM      6  C6  I4B d   1      -0.056  -2.605   2.647  0.00  0.00     0.003 A 
ENDROOT
BRANCH   1   7
ATOM      7  C1' I4B d   1       1.646  -0.784   2.932  0.00  0.00     0.060 C 
BRANCH   7   8
ATOM      8  C2' I4B d   1       2.546  -1.898   2.437  0.00  0.00    -0.013 C 
ATOM      9  C4' I4B d   1       2.925  -1.692   0.994  0.00  0.00     0.013 C 
ATOM     10  C3' I4B d   1       3.761  -1.937   3.315  0.00  0.00     0.013 C 
ENDBRANCH   7   8
ENDBRANCH   1   7
TORSDOF 2
ENDMDL
