MODEL 1
REMARK minimizedAffinity 6.07897329
REMARK minimizedRMSD -1
REMARK  2 active torsions:
REMARK  status: ('A' for Active; 'I' for Inactive)
REMARK    1  A    between atoms: C2'_3  and  C1'_4 
REMARK    2  A    between atoms: C1'_4  and  C1_5 
ROOT
ATOM      1  C1  I4B d   1       1.503  -1.696   2.617  0.00  0.00    -0.075 A 
ATOM      2  C2  I4B d   1       1.522  -0.541   3.359  0.00  0.00     0.003 A 
ATOM      3  C3  I4B d   1       0.310   0.103   3.706  0.00  0.00     0.002 A 
ATOM      4  C4  I4B d   1      -0.887  -0.411   3.252  0.00  0.00    -0.004 A 
ATOM      5  C5  I4B d   1      -0.906  -1.595   2.519  0.00  0.00     0.002 A 
ATOM      6  C6  I4B d   1       0.296  -2.248   2.210  0.00  0.00     0.003 A 
ENDROOT
BRANCH   1   7
ATOM      7  C1' I4B d   1       2.804  -2.332   2.240  0.00  0.00     0.060 C 
BRANCH   7   8
ATOM      8  C2' I4B d   1       3.154  -1.881   0.837  0.00  0.00    -0.013 C 
ATOM      9  C4' I4B d   1       3.457  -3.057  -0.054  0.00  0.00     0.013 C 
ATOM     10  C3' I4B d   1       2.001  -1.082   0.306  0.00  0.00     0.013 C 
ENDBRANCH   7   8
ENDBRANCH   1   7
TORSDOF 2
ENDMDL
