MODEL 1
REMARK minimizedAffinity -1.18932211
REMARK minimizedRMSD -1
REMARK  2 active torsions:
REMARK  status: ('A' for Active; 'I' for Inactive)
REMARK    1  A    between atoms: C2'_3  and  C1'_4 
REMARK    2  A    between atoms: C1'_4  and  C1_5 
ROOT
ATOM      1  C1  I4B d   1       2.525   0.091   2.200  0.00  0.00    -0.075 A 
ATOM      2  C2  I4B d   1       2.222  -1.094   2.823  0.00  0.00     0.003 A 
ATOM      3  C3  I4B d   1       2.556  -2.327   2.212  0.00  0.00     0.002 A 
ATOM      4  C4  I4B d   1       3.142  -2.329   0.963  0.00  0.00    -0.004 A 
ATOM      5  C5  I4B d   1       3.469  -1.127   0.342  0.00  0.00     0.002 A 
ATOM      6  C6  I4B d   1       3.170   0.091   0.970  0.00  0.00     0.003 A 
ENDROOT
BRANCH   1   7
ATOM      7  C1' I4B d   1       2.129   1.374   2.860  0.00  0.00     0.060 C 
BRANCH   7   8
ATOM      8  C2' I4B d   1       2.958   2.487   2.251  0.00  0.00    -0.013 C 
ATOM      9  C4' I4B d   1       2.566   2.738   0.819  0.00  0.00     0.013 C 
ATOM     10  C3' I4B d   1       2.769   3.716   3.088  0.00  0.00     0.013 C 
ENDBRANCH   7   8
ENDBRANCH   1   7
TORSDOF 2
ENDMDL
