MODEL 1
REMARK minimizedAffinity 20.417944
REMARK minimizedRMSD -1
REMARK  0 active torsions:
REMARK  status: ('A' for Active; 'I' for Inactive)
ROOT
ATOM      1  C   UNL d   1       2.460  -2.567   1.283  0.00  0.00     0.124 A 
ATOM      2  C1  UNL d   1       1.782  -1.562   1.958  0.00  0.00     0.062 A 
ATOM      3  C2  UNL d   1       0.521  -1.807   2.495  0.00  0.00     0.162 A 
ATOM      4  C3  UNL d   1      -0.071  -3.063   2.358  0.00  0.00    -0.034 A 
ATOM      5  C4  UNL d   1       0.617  -4.068   1.676  0.00  0.00     0.162 A 
ATOM      6  C5  UNL d   1       1.877  -3.819   1.142  0.00  0.00     0.062 A 
ATOM      7  F   UNL d   1       2.530  -4.791   0.489  0.00  0.00    -0.097 F 
ATOM      8  F1  UNL d   1       0.077  -5.287   1.526  0.00  0.00    -0.096 F 
ATOM      9  I   UNL d   1      -1.956  -3.432   3.158  0.00  0.00    -0.060 I 
ATOM     10  F2  UNL d   1      -0.111  -0.817   3.143  0.00  0.00    -0.096 F 
ATOM     11  F3  UNL d   1       2.342  -0.352   2.095  0.00  0.00    -0.097 F 
ATOM     12  F4  UNL d   1       3.672  -2.329   0.767  0.00  0.00    -0.092 F 
ENDROOT
TORSDOF 0
ENDMDL
