MODEL 1
REMARK minimizedAffinity 23.3785839
REMARK minimizedRMSD -1
REMARK  0 active torsions:
REMARK  status: ('A' for Active; 'I' for Inactive)
ROOT
ATOM      1  C   UNL d   1      -1.987   1.826  -2.001  0.00  0.00     0.124 A 
ATOM      2  C1  UNL d   1      -2.592   2.543  -3.025  0.00  0.00     0.062 A 
ATOM      3  C2  UNL d   1      -3.738   2.049  -3.642  0.00  0.00     0.162 A 
ATOM      4  C3  UNL d   1      -4.287   0.833  -3.238  0.00  0.00    -0.034 A 
ATOM      5  C4  UNL d   1      -3.672   0.117  -2.209  0.00  0.00     0.162 A 
ATOM      6  C5  UNL d   1      -2.528   0.615  -1.594  0.00  0.00     0.062 A 
ATOM      7  F   UNL d   1      -1.945  -0.079  -0.606  0.00  0.00    -0.097 F 
ATOM      8  F1  UNL d   1      -4.174  -1.056  -1.795  0.00  0.00    -0.096 F 
ATOM      9  I   UNL d   1      -6.000   0.091  -4.159  0.00  0.00    -0.060 I 
ATOM     10  F2  UNL d   1      -4.301   2.763  -4.629  0.00  0.00    -0.096 F 
ATOM     11  F3  UNL d   1      -2.072   3.713  -3.420  0.00  0.00    -0.097 F 
ATOM     12  F4  UNL d   1      -0.885   2.303  -1.409  0.00  0.00    -0.092 F 
ENDROOT
TORSDOF 0
ENDMDL
