MODEL 1
REMARK minimizedAffinity 25.339262
REMARK minimizedRMSD -1
REMARK  0 active torsions:
REMARK  status: ('A' for Active; 'I' for Inactive)
ROOT
ATOM      1  C   UNL d   1       2.480  -2.394   0.970  0.00  0.00     0.124 A 
ATOM      2  C1  UNL d   1       1.750  -1.477   1.714  0.00  0.00     0.062 A 
ATOM      3  C2  UNL d   1       0.466  -1.793   2.149  0.00  0.00     0.162 A 
ATOM      4  C3  UNL d   1      -0.096  -3.033   1.842  0.00  0.00    -0.034 A 
ATOM      5  C4  UNL d   1       0.645  -3.949   1.093  0.00  0.00     0.162 A 
ATOM      6  C5  UNL d   1       1.927  -3.628   0.660  0.00  0.00     0.062 A 
ATOM      7  F   UNL d   1       2.631  -4.515  -0.058  0.00  0.00    -0.097 F 
ATOM      8  F1  UNL d   1       0.135  -5.150   0.780  0.00  0.00    -0.096 F 
ATOM      9  I   UNL d   1      -2.015  -3.509   2.491  0.00  0.00    -0.060 I 
ATOM     10  F2  UNL d   1      -0.217  -0.889   2.866  0.00  0.00    -0.096 F 
ATOM     11  F3  UNL d   1       2.282  -0.284   2.013  0.00  0.00    -0.097 F 
ATOM     12  F4  UNL d   1       3.715  -2.087   0.552  0.00  0.00    -0.092 F 
ENDROOT
TORSDOF 0
ENDMDL
