MODEL 1
REMARK minimizedAffinity 19.8947144
REMARK minimizedRMSD -1
REMARK  0 active torsions:
REMARK  status: ('A' for Active; 'I' for Inactive)
ROOT
ATOM      1  C   UNL d   1       0.307  -1.043   2.777  0.00  0.00     0.124 A 
ATOM      2  C1  UNL d   1       0.234  -1.740   1.579  0.00  0.00     0.062 A 
ATOM      3  C2  UNL d   1       1.390  -2.244   0.990  0.00  0.00     0.162 A 
ATOM      4  C3  UNL d   1       2.630  -2.053   1.598  0.00  0.00    -0.034 A 
ATOM      5  C4  UNL d   1       2.697  -1.350   2.803  0.00  0.00     0.162 A 
ATOM      6  C5  UNL d   1       1.538  -0.848   3.387  0.00  0.00     0.062 A 
ATOM      7  F   UNL d   1       1.612  -0.175   4.544  0.00  0.00    -0.097 F 
ATOM      8  F1  UNL d   1       3.873  -1.148   3.415  0.00  0.00    -0.096 F 
ATOM      9  I   UNL d   1       4.362  -2.804   0.721  0.00  0.00    -0.060 I 
ATOM     10  F2  UNL d   1       1.289  -2.914  -0.168  0.00  0.00    -0.096 F 
ATOM     11  F3  UNL d   1      -0.954  -1.929   0.986  0.00  0.00    -0.097 F 
ATOM     12  F4  UNL d   1      -0.806  -0.558   3.341  0.00  0.00    -0.092 F 
ENDROOT
TORSDOF 0
ENDMDL
