MODEL 1
REMARK minimizedAffinity 14.7291832
REMARK minimizedRMSD -1
REMARK  0 active torsions:
REMARK  status: ('A' for Active; 'I' for Inactive)
ROOT
ATOM      1  C   UNL d   1      -2.555   4.748  -5.481  0.00  0.00     0.124 A 
ATOM      2  C1  UNL d   1      -3.917   4.812  -5.741  0.00  0.00     0.062 A 
ATOM      3  C2  UNL d   1      -4.686   3.651  -5.736  0.00  0.00     0.162 A 
ATOM      4  C3  UNL d   1      -4.094   2.417  -5.469  0.00  0.00    -0.034 A 
ATOM      5  C4  UNL d   1      -2.723   2.361  -5.209  0.00  0.00     0.162 A 
ATOM      6  C5  UNL d   1      -1.960   3.524  -5.216  0.00  0.00     0.062 A 
ATOM      7  F   UNL d   1      -0.644   3.460  -4.964  0.00  0.00    -0.097 F 
ATOM      8  F1  UNL d   1      -2.122   1.190  -4.948  0.00  0.00    -0.096 F 
ATOM      9  I   UNL d   1      -5.239   0.679  -5.460  0.00  0.00    -0.060 I 
ATOM     10  F2  UNL d   1      -5.999   3.742  -5.990  0.00  0.00    -0.096 F 
ATOM     11  F3  UNL d   1      -4.495   5.994  -5.999  0.00  0.00    -0.097 F 
ATOM     12  F4  UNL d   1      -1.818   5.867  -5.488  0.00  0.00    -0.092 F 
ENDROOT
TORSDOF 0
ENDMDL
