MODEL 1
REMARK minimizedAffinity 25.2772789
REMARK minimizedRMSD -1
REMARK  0 active torsions:
REMARK  status: ('A' for Active; 'I' for Inactive)
ROOT
ATOM      1  C   UNL d   1      -2.131   3.721  -3.923  0.00  0.00     0.124 A 
ATOM      2  C1  UNL d   1      -0.875   3.165  -4.125  0.00  0.00     0.062 A 
ATOM      3  C2  UNL d   1      -0.513   1.995  -3.464  0.00  0.00     0.162 A 
ATOM      4  C3  UNL d   1      -1.408   1.371  -2.595  0.00  0.00    -0.034 A 
ATOM      5  C4  UNL d   1      -2.669   1.937  -2.396  0.00  0.00     0.162 A 
ATOM      6  C5  UNL d   1      -3.026   3.107  -3.059  0.00  0.00     0.062 A 
ATOM      7  F   UNL d   1      -4.240   3.642  -2.862  0.00  0.00    -0.097 F 
ATOM      8  F1  UNL d   1      -3.554   1.363  -1.568  0.00  0.00    -0.096 F 
ATOM      9  I   UNL d   1      -0.870  -0.379  -1.606  0.00  0.00    -0.060 I 
ATOM     10  F2  UNL d   1       0.707   1.480  -3.679  0.00  0.00    -0.096 F 
ATOM     11  F3  UNL d   1      -0.008   3.758  -4.959  0.00  0.00    -0.097 F 
ATOM     12  F4  UNL d   1      -2.476   4.848  -4.559  0.00  0.00    -0.092 F 
ENDROOT
TORSDOF 0
ENDMDL
