MODEL 1
REMARK minimizedAffinity 27.5160885
REMARK minimizedRMSD -1
REMARK  0 active torsions:
REMARK  status: ('A' for Active; 'I' for Inactive)
ROOT
ATOM      1  C   UNL d   1      -1.971   0.716  -2.784  0.00  0.00     0.124 A 
ATOM      2  C1  UNL d   1      -2.234  -0.472  -2.116  0.00  0.00     0.062 A 
ATOM      3  C2  UNL d   1      -3.043  -0.474  -0.983  0.00  0.00     0.162 A 
ATOM      4  C3  UNL d   1      -3.595   0.717  -0.511  0.00  0.00    -0.034 A 
ATOM      5  C4  UNL d   1      -3.325   1.908  -1.187  0.00  0.00     0.162 A 
ATOM      6  C5  UNL d   1      -2.516   1.904  -2.319  0.00  0.00     0.062 A 
ATOM      7  F   UNL d   1      -2.263   3.053  -2.963  0.00  0.00    -0.097 F 
ATOM      8  F1  UNL d   1      -3.840   3.070  -0.760  0.00  0.00    -0.096 F 
ATOM      9  I   UNL d   1      -4.804   0.718   1.183  0.00  0.00    -0.060 I 
ATOM     10  F2  UNL d   1      -3.280  -1.637  -0.357  0.00  0.00    -0.096 F 
ATOM     11  F3  UNL d   1      -1.708  -1.622  -2.563  0.00  0.00    -0.097 F 
ATOM     12  F4  UNL d   1      -1.192   0.714  -3.873  0.00  0.00    -0.092 F 
ENDROOT
TORSDOF 0
ENDMDL
