MODEL 1
REMARK minimizedAffinity 16.678463
REMARK minimizedRMSD -1
REMARK  0 active torsions:
REMARK  status: ('A' for Active; 'I' for Inactive)
ROOT
ATOM      1  C2' OXE d   1      -2.098   3.007  -3.061  0.00  0.00     0.078 C 
ATOM      2  C1' OXE d   1      -2.236   5.810  -3.088  0.00  0.00     0.078 C 
ATOM      3  C1  OXE d   1      -3.180   5.068  -2.174  0.00  0.00    -0.078 A 
ATOM      4  C2  OXE d   1      -3.137   3.695  -2.202  0.00  0.00    -0.078 A 
ATOM      5  C3  OXE d   1      -3.948   2.962  -1.340  0.00  0.00     0.003 A 
ATOM      6  C4  OXE d   1      -4.913   3.606  -0.556  0.00  0.00    -0.002 A 
ATOM      7  C5  OXE d   1      -5.001   5.003  -0.543  0.00  0.00    -0.002 A 
ATOM      8  C6  OXE d   1      -4.115   5.748  -1.312  0.00  0.00     0.003 A 
ENDROOT
TORSDOF 0
ENDMDL
