MODEL 1
REMARK minimizedAffinity 19.9138126
REMARK minimizedRMSD -1
REMARK  0 active torsions:
REMARK  status: ('A' for Active; 'I' for Inactive)
ROOT
ATOM      1  C2' OXE d   1       3.819   0.969  -1.959  0.00  0.00     0.078 C 
ATOM      2  C1' OXE d   1       3.742   1.149   0.842  0.00  0.00     0.078 C 
ATOM      3  C1  OXE d   1       2.568   1.696   0.069  0.00  0.00    -0.078 A 
ATOM      4  C2  OXE d   1       2.635   1.646  -1.302  0.00  0.00    -0.078 A 
ATOM      5  C3  OXE d   1       1.555   2.086  -2.062  0.00  0.00     0.003 A 
ATOM      6  C4  OXE d   1       0.468   2.720  -1.448  0.00  0.00    -0.002 A 
ATOM      7  C5  OXE d   1       0.398   2.817  -0.054  0.00  0.00    -0.002 A 
ATOM      8  C6  OXE d   1       1.417   2.273   0.719  0.00  0.00     0.003 A 
ENDROOT
TORSDOF 0
ENDMDL
