MODEL 1
REMARK minimizedAffinity 11.2518835
REMARK minimizedRMSD -1
REMARK  0 active torsions:
REMARK  status: ('A' for Active; 'I' for Inactive)
ROOT
ATOM      1  C2' OXE d   1      -1.793  -3.262   1.224  0.00  0.00     0.078 C 
ATOM      2  C1' OXE d   1       0.547  -1.723   1.026  0.00  0.00     0.078 C 
ATOM      3  C1  OXE d   1       0.696  -3.196   1.315  0.00  0.00    -0.078 A 
ATOM      4  C2  OXE d   1      -0.456  -3.932   1.456  0.00  0.00    -0.078 A 
ATOM      5  C3  OXE d   1      -0.375  -5.305   1.669  0.00  0.00     0.003 A 
ATOM      6  C4  OXE d   1       0.865  -5.916   1.893  0.00  0.00    -0.002 A 
ATOM      7  C5  OXE d   1       2.048  -5.177   1.793  0.00  0.00    -0.002 A 
ATOM      8  C6  OXE d   1       1.984  -3.828   1.464  0.00  0.00     0.003 A 
ENDROOT
TORSDOF 0
ENDMDL
