MODEL 1
REMARK minimizedAffinity 8.02863884
REMARK minimizedRMSD -1
REMARK  0 active torsions:
REMARK  status: ('A' for Active; 'I' for Inactive)
ROOT
ATOM      1  C2' OXE d   1       3.057  -1.584   0.869  0.00  0.00     0.078 C 
ATOM      2  C1' OXE d   1       1.436   0.702   0.700  0.00  0.00     0.078 C 
ATOM      3  C1  OXE d   1       0.883  -0.501   1.421  0.00  0.00    -0.078 A 
ATOM      4  C2  OXE d   1       1.664  -1.631   1.459  0.00  0.00    -0.078 A 
ATOM      5  C3  OXE d   1       1.225  -2.751   2.159  0.00  0.00     0.003 A 
ATOM      6  C4  OXE d   1      -0.069  -2.790   2.693  0.00  0.00    -0.002 A 
ATOM      7  C5  OXE d   1      -0.897  -1.664   2.631  0.00  0.00    -0.002 A 
ATOM      8  C6  OXE d   1      -0.421  -0.500   2.038  0.00  0.00     0.003 A 
ENDROOT
TORSDOF 0
ENDMDL
