MODEL 1
REMARK minimizedAffinity 8.29411602
REMARK minimizedRMSD -1
REMARK  0 active torsions:
REMARK  status: ('A' for Active; 'I' for Inactive)
ROOT
ATOM      1  C2' OXE d   1      -3.099  -2.786   2.998  0.00  0.00     0.078 C 
ATOM      2  C1' OXE d   1      -4.706  -3.219   5.259  0.00  0.00     0.078 C 
ATOM      3  C1  OXE d   1      -4.891  -4.139   4.077  0.00  0.00    -0.078 A 
ATOM      4  C2  OXE d   1      -4.133  -3.890   2.958  0.00  0.00    -0.078 A 
ATOM      5  C3  OXE d   1      -4.225  -4.742   1.861  0.00  0.00     0.003 A 
ATOM      6  C4  OXE d   1      -5.190  -5.755   1.828  0.00  0.00    -0.002 A 
ATOM      7  C5  OXE d   1      -6.000  -6.000   2.942  0.00  0.00    -0.002 A 
ATOM      8  C6  OXE d   1      -5.834  -5.230   4.088  0.00  0.00     0.003 A 
ENDROOT
TORSDOF 0
ENDMDL
