MODEL 1
REMARK minimizedAffinity 2.43268156
REMARK minimizedRMSD -1
REMARK  0 active torsions:
REMARK  status: ('A' for Active; 'I' for Inactive)
ROOT
ATOM      1  C2' OXE d   1      -5.996  -5.883   3.227  0.00  0.00     0.078 C 
ATOM      2  C1' OXE d   1      -4.295  -3.651   3.149  0.00  0.00     0.078 C 
ATOM      3  C1  OXE d   1      -4.682  -4.287   1.837  0.00  0.00    -0.078 A 
ATOM      4  C2  OXE d   1      -5.477  -5.407   1.887  0.00  0.00    -0.078 A 
ATOM      5  C3  OXE d   1      -5.907  -6.000   0.704  0.00  0.00     0.003 A 
ATOM      6  C4  OXE d   1      -5.414  -5.560  -0.530  0.00  0.00    -0.002 A 
ATOM      7  C5  OXE d   1      -4.571  -4.445  -0.601  0.00  0.00    -0.002 A 
ATOM      8  C6  OXE d   1      -4.231  -3.773   0.567  0.00  0.00     0.003 A 
ENDROOT
TORSDOF 0
ENDMDL
