MODEL 1
REMARK minimizedAffinity 15.3445177
REMARK minimizedRMSD -1
REMARK  0 active torsions:
REMARK  status: ('A' for Active; 'I' for Inactive)
ROOT
ATOM      1  C2' OXE d   1       2.692   0.404   1.216  0.00  0.00     0.078 C 
ATOM      2  C1' OXE d   1       0.282  -0.539   2.304  0.00  0.00     0.078 C 
ATOM      3  C1  OXE d   1       1.059  -1.468   1.406  0.00  0.00    -0.078 A 
ATOM      4  C2  OXE d   1       2.214  -0.982   0.841  0.00  0.00    -0.078 A 
ATOM      5  C3  OXE d   1       2.997  -1.816   0.048  0.00  0.00     0.003 A 
ATOM      6  C4  OXE d   1       2.543  -3.093  -0.302  0.00  0.00    -0.002 A 
ATOM      7  C5  OXE d   1       1.350  -3.593   0.231  0.00  0.00    -0.002 A 
ATOM      8  C6  OXE d   1       0.620  -2.811   1.118  0.00  0.00     0.003 A 
ENDROOT
TORSDOF 0
ENDMDL
