MODEL 1
REMARK minimizedAffinity 9.88536453
REMARK minimizedRMSD -1
REMARK  0 active torsions:
REMARK  status: ('A' for Active; 'I' for Inactive)
ROOT
ATOM      1  C2' OXE d   1      -3.232  -2.357   4.491  0.00  0.00     0.078 C 
ATOM      2  C1' OXE d   1      -3.212  -4.009   2.221  0.00  0.00     0.078 C 
ATOM      3  C1  OXE d   1      -4.209  -4.320   3.310  0.00  0.00    -0.078 A 
ATOM      4  C2  OXE d   1      -4.180  -3.535   4.437  0.00  0.00    -0.078 A 
ATOM      5  C3  OXE d   1      -5.114  -3.745   5.447  0.00  0.00     0.003 A 
ATOM      6  C4  OXE d   1      -5.981  -4.844   5.394  0.00  0.00    -0.002 A 
ATOM      7  C5  OXE d   1      -5.999  -5.680   4.272  0.00  0.00    -0.002 A 
ATOM      8  C6  OXE d   1      -5.151  -5.407   3.205  0.00  0.00     0.003 A 
ENDROOT
TORSDOF 0
ENDMDL
