MODEL 1
REMARK minimizedAffinity 6.36207056
REMARK minimizedRMSD -1
REMARK  0 active torsions:
REMARK  status: ('A' for Active; 'I' for Inactive)
ROOT
ATOM      1  C2' OXE d   1      -0.714  -0.728   4.357  0.00  0.00     0.078 C 
ATOM      2  C1' OXE d   1      -1.622  -2.638   2.510  0.00  0.00     0.078 C 
ATOM      3  C1  OXE d   1      -0.271  -2.012   2.268  0.00  0.00    -0.078 A 
ATOM      4  C2  OXE d   1       0.145  -1.044   3.151  0.00  0.00    -0.078 A 
ATOM      5  C3  OXE d   1       1.406  -0.474   3.005  0.00  0.00     0.003 A 
ATOM      6  C4  OXE d   1       2.190  -0.765   1.882  0.00  0.00    -0.002 A 
ATOM      7  C5  OXE d   1       1.767  -1.718   0.949  0.00  0.00    -0.002 A 
ATOM      8  C6  OXE d   1       0.561  -2.381   1.150  0.00  0.00     0.003 A 
ENDROOT
TORSDOF 0
ENDMDL
