MODEL 1
REMARK minimizedAffinity 10.4633064
REMARK minimizedRMSD -1
REMARK  0 active torsions:
REMARK  status: ('A' for Active; 'I' for Inactive)
ROOT
ATOM      1  C2' OXE d   1      -2.885   2.067  -3.762  0.00  0.00     0.078 C 
ATOM      2  C1' OXE d   1      -2.827   4.187  -1.923  0.00  0.00     0.078 C 
ATOM      3  C1  OXE d   1      -2.442   4.484  -3.350  0.00  0.00    -0.078 A 
ATOM      4  C2  OXE d   1      -2.428   3.431  -4.233  0.00  0.00    -0.078 A 
ATOM      5  C3  OXE d   1      -2.134   3.660  -5.574  0.00  0.00     0.003 A 
ATOM      6  C4  OXE d   1      -1.702   4.922  -6.000  0.00  0.00    -0.002 A 
ATOM      7  C5  OXE d   1      -1.671   6.000  -5.108  0.00  0.00    -0.002 A 
ATOM      8  C6  OXE d   1      -2.078   5.807  -3.792  0.00  0.00     0.003 A 
ENDROOT
TORSDOF 0
ENDMDL
