MODEL 1
REMARK minimizedAffinity 1.9462527
REMARK minimizedRMSD -1
REMARK  0 active torsions:
REMARK  status: ('A' for Active; 'I' for Inactive)
ROOT
ATOM      1  C2' OXE d   1      -3.818  -3.492   1.831  0.00  0.00     0.078 C 
ATOM      2  C1' OXE d   1      -5.042  -5.995   1.493  0.00  0.00     0.078 C 
ATOM      3  C1  OXE d   1      -5.192  -5.313   2.830  0.00  0.00    -0.078 A 
ATOM      4  C2  OXE d   1      -4.551  -4.110   3.002  0.00  0.00    -0.078 A 
ATOM      5  C3  OXE d   1      -4.702  -3.413   4.197  0.00  0.00     0.003 A 
ATOM      6  C4  OXE d   1      -5.373  -3.996   5.278  0.00  0.00    -0.002 A 
ATOM      7  C5  OXE d   1      -6.000  -5.239   5.138  0.00  0.00    -0.002 A 
ATOM      8  C6  OXE d   1      -5.955  -5.890   3.910  0.00  0.00     0.003 A 
ENDROOT
TORSDOF 0
ENDMDL
