MODEL 1
REMARK minimizedAffinity 11.0235739
REMARK minimizedRMSD -1
REMARK  0 active torsions:
REMARK  status: ('A' for Active; 'I' for Inactive)
ROOT
ATOM      1  C2' OXE d   1      -3.068  -5.999  -0.442  0.00  0.00     0.078 C 
ATOM      2  C1' OXE d   1      -5.875  -5.999  -0.388  0.00  0.00     0.078 C 
ATOM      3  C1  OXE d   1      -5.157  -4.886   0.334  0.00  0.00    -0.078 A 
ATOM      4  C2  OXE d   1      -3.784  -4.920   0.342  0.00  0.00    -0.078 A 
ATOM      5  C3  OXE d   1      -3.072  -3.888   0.947  0.00  0.00     0.003 A 
ATOM      6  C4  OXE d   1      -3.742  -2.899   1.678  0.00  0.00    -0.002 A 
ATOM      7  C5  OXE d   1      -5.140  -2.868   1.716  0.00  0.00    -0.002 A 
ATOM      8  C6  OXE d   1      -5.862  -3.828   1.015  0.00  0.00     0.003 A 
ENDROOT
TORSDOF 0
ENDMDL
