MODEL 1
REMARK minimizedAffinity 11.6280289
REMARK minimizedRMSD -1
REMARK  0 active torsions:
REMARK  status: ('A' for Active; 'I' for Inactive)
ROOT
ATOM      1  C2' OXE d   1      -3.023   5.999  -1.469  0.00  0.00     0.078 C 
ATOM      2  C1' OXE d   1      -4.860   3.927  -1.009  0.00  0.00     0.078 C 
ATOM      3  C1  OXE d   1      -3.794   3.704  -2.053  0.00  0.00    -0.078 A 
ATOM      4  C2  OXE d   1      -2.929   4.741  -2.304  0.00  0.00    -0.078 A 
ATOM      5  C3  OXE d   1      -1.893   4.568  -3.218  0.00  0.00     0.003 A 
ATOM      6  C4  OXE d   1      -1.818   3.405  -3.994  0.00  0.00    -0.002 A 
ATOM      7  C5  OXE d   1      -2.715   2.352  -3.782  0.00  0.00    -0.002 A 
ATOM      8  C6  OXE d   1      -3.680   2.468  -2.788  0.00  0.00     0.003 A 
ENDROOT
TORSDOF 0
ENDMDL
