MODEL 1
REMARK minimizedAffinity 16.6374531
REMARK minimizedRMSD -1
REMARK  0 active torsions:
REMARK  status: ('A' for Active; 'I' for Inactive)
ROOT
ATOM      1  C2' OXE d   1      -1.317  -0.659   4.578  0.00  0.00     0.078 C 
ATOM      2  C1' OXE d   1      -2.090  -2.995   3.227  0.00  0.00     0.078 C 
ATOM      3  C1  OXE d   1      -0.859  -2.274   2.737  0.00  0.00    -0.078 A 
ATOM      4  C2  OXE d   1      -0.515  -1.106   3.375  0.00  0.00    -0.078 A 
ATOM      5  C3  OXE d   1       0.643  -0.431   2.999  0.00  0.00     0.003 A 
ATOM      6  C4  OXE d   1       1.373  -0.846   1.879  0.00  0.00    -0.002 A 
ATOM      7  C5  OXE d   1       1.017  -2.011   1.191  0.00  0.00    -0.002 A 
ATOM      8  C6  OXE d   1      -0.069  -2.758   1.632  0.00  0.00     0.003 A 
ENDROOT
TORSDOF 0
ENDMDL
