MODEL 1
REMARK minimizedAffinity 10.9484825
REMARK minimizedRMSD -1
REMARK  0 active torsions:
REMARK  status: ('A' for Active; 'I' for Inactive)
ROOT
ATOM      1  C2' OXE d   1      -5.547  -5.997   2.481  0.00  0.00     0.078 C 
ATOM      2  C1' OXE d   1      -3.720  -3.917   2.018  0.00  0.00     0.078 C 
ATOM      3  C1  OXE d   1      -4.430  -3.947   3.349  0.00  0.00    -0.078 A 
ATOM      4  C2  OXE d   1      -5.357  -4.941   3.548  0.00  0.00    -0.078 A 
ATOM      5  C3  OXE d   1      -6.000  -5.047   4.778  0.00  0.00     0.003 A 
ATOM      6  C4  OXE d   1      -5.825  -4.061   5.757  0.00  0.00    -0.002 A 
ATOM      7  C5  OXE d   1      -4.916  -3.017   5.558  0.00  0.00    -0.002 A 
ATOM      8  C6  OXE d   1      -4.180  -2.969   4.379  0.00  0.00     0.003 A 
ENDROOT
TORSDOF 0
ENDMDL
