MODEL 1
REMARK minimizedAffinity 3.1315484
REMARK minimizedRMSD -1
REMARK  0 active torsions:
REMARK  status: ('A' for Active; 'I' for Inactive)
ROOT
ATOM      1  C2' OXE d   1      -5.752  -6.000   2.764  0.00  0.00     0.078 C 
ATOM      2  C1' OXE d   1      -4.108  -3.793   3.320  0.00  0.00     0.078 C 
ATOM      3  C1  OXE d   1      -4.076  -4.360   1.923  0.00  0.00    -0.078 A 
ATOM      4  C2  OXE d   1      -4.848  -5.469   1.672  0.00  0.00    -0.078 A 
ATOM      5  C3  OXE d   1      -4.897  -5.999   0.386  0.00  0.00     0.003 A 
ATOM      6  C4  OXE d   1      -4.050  -5.508  -0.615  0.00  0.00    -0.002 A 
ATOM      7  C5  OXE d   1      -3.226  -4.405  -0.370  0.00  0.00    -0.002 A 
ATOM      8  C6  OXE d   1      -3.258  -3.794   0.878  0.00  0.00     0.003 A 
ENDROOT
TORSDOF 0
ENDMDL
