MODEL 1
REMARK minimizedAffinity 2.41782713
REMARK minimizedRMSD -1
REMARK  0 active torsions:
REMARK  status: ('A' for Active; 'I' for Inactive)
ROOT
ATOM      1  C2' OXE d   1       0.318  -3.646  -3.734  0.00  0.00     0.078 C 
ATOM      2  C1' OXE d   1       0.419  -6.000  -5.260  0.00  0.00     0.078 C 
ATOM      3  C1  OXE d   1       1.636  -5.108  -5.261  0.00  0.00    -0.078 A 
ATOM      4  C2  OXE d   1       1.560  -3.935  -4.549  0.00  0.00    -0.078 A 
ATOM      5  C3  OXE d   1       2.673  -3.103  -4.472  0.00  0.00     0.003 A 
ATOM      6  C4  OXE d   1       3.815  -3.373  -5.236  0.00  0.00    -0.002 A 
ATOM      7  C5  OXE d   1       3.898  -4.542  -6.000  0.00  0.00    -0.002 A 
ATOM      8  C6  OXE d   1       2.835  -5.439  -5.989  0.00  0.00     0.003 A 
ENDROOT
TORSDOF 0
ENDMDL
