MODEL 1
REMARK minimizedAffinity 15.5799561
REMARK minimizedRMSD -1
REMARK  0 active torsions:
REMARK  status: ('A' for Active; 'I' for Inactive)
ROOT
ATOM      1  C2' OXE d   1       4.078  -2.585  -5.379  0.00  0.00     0.078 C 
ATOM      2  C1' OXE d   1       4.920  -5.191  -5.995  0.00  0.00     0.078 C 
ATOM      3  C1  OXE d   1       3.440  -4.951  -5.827  0.00  0.00    -0.078 A 
ATOM      4  C2  OXE d   1       3.041  -3.683  -5.480  0.00  0.00    -0.078 A 
ATOM      5  C3  OXE d   1       1.684  -3.395  -5.366  0.00  0.00     0.003 A 
ATOM      6  C4  OXE d   1       0.732  -4.418  -5.451  0.00  0.00    -0.002 A 
ATOM      7  C5  OXE d   1       1.121  -5.725  -5.765  0.00  0.00    -0.002 A 
ATOM      8  C6  OXE d   1       2.464  -5.999  -5.998  0.00  0.00     0.003 A 
ENDROOT
TORSDOF 0
ENDMDL
