MODEL 1
REMARK minimizedAffinity 3.60255527
REMARK minimizedRMSD -1
REMARK  0 active torsions:
REMARK  status: ('A' for Active; 'I' for Inactive)
ROOT
ATOM      1  C2' OXE d   1      -2.721  -2.851   1.837  0.00  0.00     0.078 C 
ATOM      2  C1' OXE d   1      -4.791  -3.790   3.485  0.00  0.00     0.078 C 
ATOM      3  C1  OXE d   1      -4.630  -4.425   2.127  0.00  0.00    -0.078 A 
ATOM      4  C2  OXE d   1      -3.644  -3.928   1.309  0.00  0.00    -0.078 A 
ATOM      5  C3  OXE d   1      -3.418  -4.514   0.067  0.00  0.00     0.003 A 
ATOM      6  C4  OXE d   1      -4.282  -5.503  -0.418  0.00  0.00    -0.002 A 
ATOM      7  C5  OXE d   1      -5.317  -5.996   0.383  0.00  0.00    -0.002 A 
ATOM      8  C6  OXE d   1      -5.478  -5.499   1.671  0.00  0.00     0.003 A 
ENDROOT
TORSDOF 0
ENDMDL
