MODEL 1
REMARK minimizedAffinity 11.7945776
REMARK minimizedRMSD -1
REMARK  0 active torsions:
REMARK  status: ('A' for Active; 'I' for Inactive)
ROOT
ATOM      1  C   UNL d   1       3.632  -2.628   2.393  0.00  0.00     0.124 A 
ATOM      2  C1  UNL d   1       4.488  -1.574   2.108  0.00  0.00     0.062 A 
ATOM      3  C2  UNL d   1       5.165  -0.924   3.136  0.00  0.00     0.162 A 
ATOM      4  C3  UNL d   1       4.989  -1.328   4.460  0.00  0.00    -0.034 A 
ATOM      5  C4  UNL d   1       4.126  -2.388   4.739  0.00  0.00     0.162 A 
ATOM      6  C5  UNL d   1       3.451  -3.034   3.708  0.00  0.00     0.062 A 
ATOM      7  F   UNL d   1       2.624  -4.053   3.985  0.00  0.00    -0.097 F 
ATOM      8  F1  UNL d   1       3.933  -2.802   6.000  0.00  0.00    -0.096 F 
ATOM      9  I   UNL d   1       6.000  -0.359   6.000  0.00  0.00    -0.060 I 
ATOM     10  F2  UNL d   1       5.986   0.092   2.831  0.00  0.00    -0.096 F 
ATOM     11  F3  UNL d   1       4.664  -1.179   0.839  0.00  0.00    -0.097 F 
ATOM     12  F4  UNL d   1       2.981  -3.251   1.402  0.00  0.00    -0.092 F 
ENDROOT
TORSDOF 0
ENDMDL
