MODEL 1
REMARK minimizedAffinity 7.69994307
REMARK minimizedRMSD -1
REMARK  0 active torsions:
REMARK  status: ('A' for Active; 'I' for Inactive)
ROOT
ATOM      1  C   UNL d   1      -0.142  -0.591  -0.237  0.00  0.00     0.124 A 
ATOM      2  C1  UNL d   1      -0.077  -1.866  -0.782  0.00  0.00     0.062 A 
ATOM      3  C2  UNL d   1       0.347  -2.044  -2.095  0.00  0.00     0.162 A 
ATOM      4  C3  UNL d   1       0.710  -0.945  -2.873  0.00  0.00    -0.034 A 
ATOM      5  C4  UNL d   1       0.641   0.334  -2.319  0.00  0.00     0.162 A 
ATOM      6  C5  UNL d   1       0.217   0.507  -1.005  0.00  0.00     0.062 A 
ATOM      7  F   UNL d   1       0.154   1.740  -0.480  0.00  0.00    -0.097 F 
ATOM      8  F1  UNL d   1       0.983   1.413  -3.039  0.00  0.00    -0.096 F 
ATOM      9  I   UNL d   1       1.345  -1.208  -4.838  0.00  0.00    -0.060 I 
ATOM     10  F2  UNL d   1       0.401  -3.288  -2.596  0.00  0.00    -0.096 F 
ATOM     11  F3  UNL d   1      -0.424  -2.929  -0.042  0.00  0.00    -0.097 F 
ATOM     12  F4  UNL d   1      -0.551  -0.422   1.027  0.00  0.00    -0.092 F 
ENDROOT
TORSDOF 0
ENDMDL
