MODEL 1
REMARK minimizedAffinity 11.2274427
REMARK minimizedRMSD -1
REMARK  0 active torsions:
REMARK  status: ('A' for Active; 'I' for Inactive)
ROOT
ATOM      1  C   UNL d   1       0.469  -1.379  -2.037  0.00  0.00     0.124 A 
ATOM      2  C1  UNL d   1       0.692  -1.533  -3.399  0.00  0.00     0.062 A 
ATOM      3  C2  UNL d   1       0.860  -0.415  -4.211  0.00  0.00     0.162 A 
ATOM      4  C3  UNL d   1       0.807   0.867  -3.664  0.00  0.00    -0.034 A 
ATOM      5  C4  UNL d   1       0.582   1.014  -2.294  0.00  0.00     0.162 A 
ATOM      6  C5  UNL d   1       0.414  -0.106  -1.486  0.00  0.00     0.062 A 
ATOM      7  F   UNL d   1       0.199   0.044  -0.171  0.00  0.00    -0.097 F 
ATOM      8  F1  UNL d   1       0.525   2.232  -1.735  0.00  0.00    -0.096 F 
ATOM      9  I   UNL d   1       1.058   2.541  -4.875  0.00  0.00    -0.060 I 
ATOM     10  F2  UNL d   1       1.074  -0.593  -5.523  0.00  0.00    -0.096 F 
ATOM     11  F3  UNL d   1       0.744  -2.761  -3.934  0.00  0.00    -0.097 F 
ATOM     12  F4  UNL d   1       0.307  -2.456  -1.258  0.00  0.00    -0.092 F 
ENDROOT
TORSDOF 0
ENDMDL
