MODEL 1
REMARK minimizedAffinity 24.4658279
REMARK minimizedRMSD -1
REMARK  0 active torsions:
REMARK  status: ('A' for Active; 'I' for Inactive)
ROOT
ATOM      1  C   UNL d   1       3.050  -0.006  -5.893  0.00  0.00     0.124 A 
ATOM      2  C1  UNL d   1       4.379  -0.408  -5.871  0.00  0.00     0.062 A 
ATOM      3  C2  UNL d   1       4.700  -1.762  -5.870  0.00  0.00     0.162 A 
ATOM      4  C3  UNL d   1       3.691  -2.725  -5.892  0.00  0.00    -0.034 A 
ATOM      5  C4  UNL d   1       2.358  -2.313  -5.912  0.00  0.00     0.162 A 
ATOM      6  C5  UNL d   1       2.041  -0.959  -5.913  0.00  0.00     0.062 A 
ATOM      7  F   UNL d   1       0.757  -0.572  -5.934  0.00  0.00    -0.097 F 
ATOM      8  F1  UNL d   1       1.363  -3.213  -5.933  0.00  0.00    -0.096 F 
ATOM      9  I   UNL d   1       4.168  -4.751  -5.890  0.00  0.00    -0.060 I 
ATOM     10  F2  UNL d   1       5.992  -2.122  -5.849  0.00  0.00    -0.096 F 
ATOM     11  F3  UNL d   1       5.355   0.510  -5.850  0.00  0.00    -0.097 F 
ATOM     12  F4  UNL d   1       2.744   1.298  -5.893  0.00  0.00    -0.092 F 
ENDROOT
TORSDOF 0
ENDMDL
