MODEL 1
REMARK minimizedAffinity 3.74646497
REMARK minimizedRMSD -1
REMARK  0 active torsions:
REMARK  status: ('A' for Active; 'I' for Inactive)
ROOT
ATOM      1  C   UNL d   1      -3.657  -1.282   4.072  0.00  0.00     0.124 A 
ATOM      2  C1  UNL d   1      -2.765  -0.718   4.973  0.00  0.00     0.062 A 
ATOM      3  C2  UNL d   1      -2.640   0.666   5.061  0.00  0.00     0.162 A 
ATOM      4  C3  UNL d   1      -3.411   1.495   4.245  0.00  0.00    -0.034 A 
ATOM      5  C4  UNL d   1      -4.305   0.920   3.341  0.00  0.00     0.162 A 
ATOM      6  C5  UNL d   1      -4.426  -0.464   3.257  0.00  0.00     0.062 A 
ATOM      7  F   UNL d   1      -5.288  -1.007   2.386  0.00  0.00    -0.097 F 
ATOM      8  F1  UNL d   1      -5.061   1.687   2.542  0.00  0.00    -0.096 F 
ATOM      9  I   UNL d   1      -3.228   3.564   4.374  0.00  0.00    -0.060 I 
ATOM     10  F2  UNL d   1      -1.770   1.184   5.940  0.00  0.00    -0.096 F 
ATOM     11  F3  UNL d   1      -2.020  -1.507   5.761  0.00  0.00    -0.097 F 
ATOM     12  F4  UNL d   1      -3.774  -2.614   3.989  0.00  0.00    -0.092 F 
ENDROOT
TORSDOF 0
ENDMDL
