MODEL 1
REMARK minimizedAffinity 13.8189068
REMARK minimizedRMSD -1
REMARK  0 active torsions:
REMARK  status: ('A' for Active; 'I' for Inactive)
ROOT
ATOM      1  C   UNL d   1       1.231  -0.173  -3.179  0.00  0.00     0.124 A 
ATOM      2  C1  UNL d   1       0.810   0.536  -2.063  0.00  0.00     0.062 A 
ATOM      3  C2  UNL d   1       0.270  -0.135  -0.970  0.00  0.00     0.162 A 
ATOM      4  C3  UNL d   1       0.148  -1.525  -0.988  0.00  0.00    -0.034 A 
ATOM      5  C4  UNL d   1       0.573  -2.231  -2.115  0.00  0.00     0.162 A 
ATOM      6  C5  UNL d   1       1.112  -1.555  -3.204  0.00  0.00     0.062 A 
ATOM      7  F   UNL d   1       1.518  -2.241  -4.282  0.00  0.00    -0.097 F 
ATOM      8  F1  UNL d   1       0.470  -3.567  -2.165  0.00  0.00    -0.096 F 
ATOM      9  I   UNL d   1      -0.660  -2.533   0.644  0.00  0.00    -0.060 I 
ATOM     10  F2  UNL d   1      -0.129   0.575   0.096  0.00  0.00    -0.096 F 
ATOM     11  F3  UNL d   1       0.924   1.872  -2.036  0.00  0.00    -0.097 F 
ATOM     12  F4  UNL d   1       1.750   0.476  -4.230  0.00  0.00    -0.092 F 
ENDROOT
TORSDOF 0
ENDMDL
