MODEL 1
REMARK minimizedAffinity 13.3777695
REMARK minimizedRMSD -1
REMARK  0 active torsions:
REMARK  status: ('A' for Active; 'I' for Inactive)
ROOT
ATOM      1  C   UNL d   1       3.609   2.175   1.844  0.00  0.00     0.124 A 
ATOM      2  C1  UNL d   1       3.420   0.803   1.939  0.00  0.00     0.062 A 
ATOM      3  C2  UNL d   1       4.102   0.068   2.904  0.00  0.00     0.162 A 
ATOM      4  C3  UNL d   1       4.979   0.703   3.784  0.00  0.00    -0.034 A 
ATOM      5  C4  UNL d   1       5.164   2.083   3.681  0.00  0.00     0.162 A 
ATOM      6  C5  UNL d   1       4.480   2.813   2.714  0.00  0.00     0.062 A 
ATOM      7  F   UNL d   1       4.664   4.139   2.624  0.00  0.00    -0.097 F 
ATOM      8  F1  UNL d   1       6.000   2.726   4.510  0.00  0.00    -0.096 F 
ATOM      9  I   UNL d   1       6.000  -0.392   5.229  0.00  0.00    -0.060 I 
ATOM     10  F2  UNL d   1       3.900  -1.256   2.974  0.00  0.00    -0.096 F 
ATOM     11  F3  UNL d   1       2.579   0.183   1.098  0.00  0.00    -0.097 F 
ATOM     12  F4  UNL d   1       2.952   2.879   0.913  0.00  0.00    -0.092 F 
ENDROOT
TORSDOF 0
ENDMDL
