MODEL 1
REMARK minimizedAffinity 16.2266846
REMARK minimizedRMSD -1
REMARK  0 active torsions:
REMARK  status: ('A' for Active; 'I' for Inactive)
ROOT
ATOM      1  C   UNL d   1       1.773   1.356  -2.938  0.00  0.00     0.124 A 
ATOM      2  C1  UNL d   1       2.624   2.415  -2.654  0.00  0.00     0.062 A 
ATOM      3  C2  UNL d   1       2.979   2.695  -1.338  0.00  0.00     0.162 A 
ATOM      4  C3  UNL d   1       2.484   1.914  -0.294  0.00  0.00    -0.034 A 
ATOM      5  C4  UNL d   1       1.628   0.851  -0.587  0.00  0.00     0.162 A 
ATOM      6  C5  UNL d   1       1.276   0.575  -1.904  0.00  0.00     0.062 A 
ATOM      7  F   UNL d   1       0.453  -0.449  -2.175  0.00  0.00    -0.097 F 
ATOM      8  F1  UNL d   1       1.134   0.079   0.393  0.00  0.00    -0.096 F 
ATOM      9  I   UNL d   1       3.013   2.329   1.675  0.00  0.00    -0.060 I 
ATOM     10  F2  UNL d   1       3.803   3.725  -1.094  0.00  0.00    -0.096 F 
ATOM     11  F3  UNL d   1       3.105   3.172  -3.651  0.00  0.00    -0.097 F 
ATOM     12  F4  UNL d   1       1.432   1.089  -4.205  0.00  0.00    -0.092 F 
ENDROOT
TORSDOF 0
ENDMDL
