MODEL 1
REMARK minimizedAffinity 26.4693031
REMARK minimizedRMSD -1
REMARK  0 active torsions:
REMARK  status: ('A' for Active; 'I' for Inactive)
ROOT
ATOM      1  C   UNL d   1       0.670  -1.728   0.989  0.00  0.00     0.124 A 
ATOM      2  C1  UNL d   1       0.638  -1.182   2.265  0.00  0.00     0.062 A 
ATOM      3  C2  UNL d   1      -0.472  -1.376   3.081  0.00  0.00     0.162 A 
ATOM      4  C3  UNL d   1      -1.559  -2.122   2.625  0.00  0.00    -0.034 A 
ATOM      5  C4  UNL d   1      -1.520  -2.668   1.341  0.00  0.00     0.162 A 
ATOM      6  C5  UNL d   1      -0.408  -2.470   0.528  0.00  0.00     0.062 A 
ATOM      7  F   UNL d   1      -0.378  -2.998  -0.704  0.00  0.00    -0.097 F 
ATOM      8  F1  UNL d   1      -2.547  -3.390   0.871  0.00  0.00    -0.096 F 
ATOM      9  I   UNL d   1      -3.221  -2.416   3.843  0.00  0.00    -0.060 I 
ATOM     10  F2  UNL d   1      -0.477  -0.837   4.309  0.00  0.00    -0.096 F 
ATOM     11  F3  UNL d   1       1.678  -0.463   2.712  0.00  0.00    -0.097 F 
ATOM     12  F4  UNL d   1       1.740  -1.538   0.205  0.00  0.00    -0.092 F 
ENDROOT
TORSDOF 0
ENDMDL
