MODEL 1
REMARK minimizedAffinity 17.1358471
REMARK minimizedRMSD -1
REMARK  0 active torsions:
REMARK  status: ('A' for Active; 'I' for Inactive)
ROOT
ATOM      1  C   UNL d   1       3.727   1.243  -5.407  0.00  0.00     0.124 A 
ATOM      2  C1  UNL d   1       4.879   2.016  -5.472  0.00  0.00     0.062 A 
ATOM      3  C2  UNL d   1       4.873   3.323  -4.994  0.00  0.00     0.162 A 
ATOM      4  C3  UNL d   1       3.711   3.866  -4.445  0.00  0.00    -0.034 A 
ATOM      5  C4  UNL d   1       2.557   3.083  -4.384  0.00  0.00     0.162 A 
ATOM      6  C5  UNL d   1       2.568   1.778  -4.863  0.00  0.00     0.062 A 
ATOM      7  F   UNL d   1       1.454   1.033  -4.799  0.00  0.00    -0.097 F 
ATOM      8  F1  UNL d   1       1.423   3.574  -3.862  0.00  0.00    -0.096 F 
ATOM      9  I   UNL d   1       3.698   5.820  -3.729  0.00  0.00    -0.060 I 
ATOM     10  F2  UNL d   1       6.000   4.046  -5.070  0.00  0.00    -0.096 F 
ATOM     11  F3  UNL d   1       6.000   1.502  -5.998  0.00  0.00    -0.097 F 
ATOM     12  F4  UNL d   1       3.735  -0.014  -5.869  0.00  0.00    -0.092 F 
ENDROOT
TORSDOF 0
ENDMDL
