MODEL 1
REMARK minimizedAffinity 19.6190357
REMARK minimizedRMSD -1
REMARK  0 active torsions:
REMARK  status: ('A' for Active; 'I' for Inactive)
ROOT
ATOM      1  C   UNL d   1       1.026   2.354  -1.914  0.00  0.00     0.124 A 
ATOM      2  C1  UNL d   1       0.946   1.753  -3.163  0.00  0.00     0.062 A 
ATOM      3  C2  UNL d   1       0.703   0.387  -3.268  0.00  0.00     0.162 A 
ATOM      4  C3  UNL d   1       0.537  -0.389  -2.120  0.00  0.00    -0.034 A 
ATOM      5  C4  UNL d   1       0.620   0.222  -0.868  0.00  0.00     0.162 A 
ATOM      6  C5  UNL d   1       0.863   1.588  -0.768  0.00  0.00     0.062 A 
ATOM      7  F   UNL d   1       0.939   2.167   0.439  0.00  0.00    -0.097 F 
ATOM      8  F1  UNL d   1       0.465  -0.494   0.256  0.00  0.00    -0.096 F 
ATOM      9  I   UNL d   1       0.174  -2.432  -2.273  0.00  0.00    -0.060 I 
ATOM     10  F2  UNL d   1       0.631  -0.167  -4.487  0.00  0.00    -0.096 F 
ATOM     11  F3  UNL d   1       1.104   2.491  -4.271  0.00  0.00    -0.097 F 
ATOM     12  F4  UNL d   1       1.261   3.669  -1.816  0.00  0.00    -0.092 F 
ENDROOT
TORSDOF 0
ENDMDL
