MODEL 1
REMARK minimizedAffinity 25.6802273
REMARK minimizedRMSD -1
REMARK  0 active torsions:
REMARK  status: ('A' for Active; 'I' for Inactive)
ROOT
ATOM      1  C   UNL d   1       0.645  -1.937  -3.105  0.00  0.00     0.124 A 
ATOM      2  C1  UNL d   1       0.422  -0.706  -2.504  0.00  0.00     0.062 A 
ATOM      3  C2  UNL d   1       0.329  -0.609  -1.119  0.00  0.00     0.162 A 
ATOM      4  C3  UNL d   1       0.458  -1.748  -0.324  0.00  0.00    -0.034 A 
ATOM      5  C4  UNL d   1       0.681  -2.983  -0.935  0.00  0.00     0.162 A 
ATOM      6  C5  UNL d   1       0.773  -3.074  -2.320  0.00  0.00     0.062 A 
ATOM      7  F   UNL d   1       0.988  -4.265  -2.899  0.00  0.00    -0.097 F 
ATOM      8  F1  UNL d   1       0.810  -4.098  -0.201  0.00  0.00    -0.096 F 
ATOM      9  I   UNL d   1       0.319  -1.608   1.748  0.00  0.00    -0.060 I 
ATOM     10  F2  UNL d   1       0.114   0.594  -0.566  0.00  0.00    -0.096 F 
ATOM     11  F3  UNL d   1       0.297   0.394  -3.261  0.00  0.00    -0.097 F 
ATOM     12  F4  UNL d   1       0.733  -2.027  -4.438  0.00  0.00    -0.092 F 
ENDROOT
TORSDOF 0
ENDMDL
