MODEL 1
REMARK minimizedAffinity 23.0423698
REMARK minimizedRMSD -1
REMARK  0 active torsions:
REMARK  status: ('A' for Active; 'I' for Inactive)
ROOT
ATOM      1  C   UNL d   1       0.171  -0.977  -0.869  0.00  0.00     0.124 A 
ATOM      2  C1  UNL d   1       0.316   0.056  -1.785  0.00  0.00     0.062 A 
ATOM      3  C2  UNL d   1       0.640  -0.224  -3.109  0.00  0.00     0.162 A 
ATOM      4  C3  UNL d   1       0.820  -1.542  -3.526  0.00  0.00    -0.034 A 
ATOM      5  C4  UNL d   1       0.674  -2.576  -2.599  0.00  0.00     0.162 A 
ATOM      6  C5  UNL d   1       0.350  -2.291  -1.277  0.00  0.00     0.062 A 
ATOM      7  F   UNL d   1       0.211  -3.290  -0.393  0.00  0.00    -0.097 F 
ATOM      8  F1  UNL d   1       0.841  -3.855  -2.966  0.00  0.00    -0.096 F 
ATOM      9  I   UNL d   1       1.305  -1.964  -5.506  0.00  0.00    -0.060 I 
ATOM     10  F2  UNL d   1       0.773   0.794  -3.973  0.00  0.00    -0.096 F 
ATOM     11  F3  UNL d   1       0.144   1.327  -1.393  0.00  0.00    -0.097 F 
ATOM     12  F4  UNL d   1      -0.140  -0.705   0.405  0.00  0.00    -0.092 F 
ENDROOT
TORSDOF 0
ENDMDL
