MODEL 1
REMARK minimizedAffinity 22.9220295
REMARK minimizedRMSD -1
REMARK  0 active torsions:
REMARK  status: ('A' for Active; 'I' for Inactive)
ROOT
ATOM      1  C   UNL d   1      -0.002  -2.299   1.397  0.00  0.00     0.124 A 
ATOM      2  C1  UNL d   1      -1.295  -1.912   1.076  0.00  0.00     0.062 A 
ATOM      3  C2  UNL d   1      -2.129  -1.377   2.053  0.00  0.00     0.162 A 
ATOM      4  C3  UNL d   1      -1.672  -1.225   3.362  0.00  0.00    -0.034 A 
ATOM      5  C4  UNL d   1      -0.371  -1.617   3.678  0.00  0.00     0.162 A 
ATOM      6  C5  UNL d   1       0.459  -2.151   2.698  0.00  0.00     0.062 A 
ATOM      7  F   UNL d   1       1.709  -2.525   3.011  0.00  0.00    -0.097 F 
ATOM      8  F1  UNL d   1       0.101  -1.485   4.927  0.00  0.00    -0.096 F 
ATOM      9  I   UNL d   1      -2.917  -0.425   4.826  0.00  0.00    -0.060 I 
ATOM     10  F2  UNL d   1      -3.374  -1.011   1.714  0.00  0.00    -0.096 F 
ATOM     11  F3  UNL d   1      -1.743  -2.054  -0.180  0.00  0.00    -0.097 F 
ATOM     12  F4  UNL d   1       0.799  -2.814   0.455  0.00  0.00    -0.092 F 
ENDROOT
TORSDOF 0
ENDMDL
