MODEL 1
REMARK minimizedAffinity 5.58181858
REMARK minimizedRMSD -1
REMARK  0 active torsions:
REMARK  status: ('A' for Active; 'I' for Inactive)
ROOT
ATOM      1  C   UNL d   1       1.635   2.554  -0.974  0.00  0.00     0.124 A 
ATOM      2  C1  UNL d   1       0.791   1.748  -1.726  0.00  0.00     0.062 A 
ATOM      3  C2  UNL d   1       0.558   0.430  -1.344  0.00  0.00     0.162 A 
ATOM      4  C3  UNL d   1       1.169  -0.091  -0.204  0.00  0.00    -0.034 A 
ATOM      5  C4  UNL d   1       2.018   0.725   0.547  0.00  0.00     0.162 A 
ATOM      6  C5  UNL d   1       2.247   2.041   0.161  0.00  0.00     0.062 A 
ATOM      7  F   UNL d   1       3.063   2.818   0.889  0.00  0.00    -0.097 F 
ATOM      8  F1  UNL d   1       2.622   0.256   1.648  0.00  0.00    -0.096 F 
ATOM      9  I   UNL d   1       0.823  -2.062   0.370  0.00  0.00    -0.060 I 
ATOM     10  F2  UNL d   1      -0.263  -0.325  -2.089  0.00  0.00    -0.096 F 
ATOM     11  F3  UNL d   1       0.198   2.241  -2.823  0.00  0.00    -0.097 F 
ATOM     12  F4  UNL d   1       1.858   3.821  -1.344  0.00  0.00    -0.092 F 
ENDROOT
TORSDOF 0
ENDMDL
