MODEL 1
REMARK minimizedAffinity 32.2537384
REMARK minimizedRMSD -1
REMARK  0 active torsions:
REMARK  status: ('A' for Active; 'I' for Inactive)
ROOT
ATOM      1  C   UNL d   1      -4.083   2.685  -0.588  0.00  0.00     0.124 A 
ATOM      2  C1  UNL d   1      -3.016   3.571  -0.657  0.00  0.00     0.062 A 
ATOM      3  C2  UNL d   1      -2.826   4.518   0.345  0.00  0.00     0.162 A 
ATOM      4  C3  UNL d   1      -3.706   4.585   1.426  0.00  0.00    -0.034 A 
ATOM      5  C4  UNL d   1      -4.777   3.692   1.488  0.00  0.00     0.162 A 
ATOM      6  C5  UNL d   1      -4.962   2.746   0.484  0.00  0.00     0.062 A 
ATOM      7  F   UNL d   1      -5.993   1.892   0.552  0.00  0.00    -0.097 F 
ATOM      8  F1  UNL d   1      -5.641   3.728   2.513  0.00  0.00    -0.096 F 
ATOM      9  I   UNL d   1      -3.426   6.000   2.926  0.00  0.00    -0.060 I 
ATOM     10  F2  UNL d   1      -1.787   5.361   0.252  0.00  0.00    -0.096 F 
ATOM     11  F3  UNL d   1      -2.166   3.514  -1.692  0.00  0.00    -0.097 F 
ATOM     12  F4  UNL d   1      -4.263   1.775  -1.554  0.00  0.00    -0.092 F 
ENDROOT
TORSDOF 0
ENDMDL
