MODEL 1
REMARK minimizedAffinity -1.32736123
REMARK minimizedRMSD -1
REMARK  2 active torsions:
REMARK  status: ('A' for Active; 'I' for Inactive)
REMARK    1  A    between atoms: C2'_3  and  C1'_4 
REMARK    2  A    between atoms: C1'_4  and  C1_5 
ROOT
ATOM      1  C1  I4B d   1      -5.346  -3.890  -3.189  0.00  0.00    -0.075 A 
ATOM      2  C2  I4B d   1      -4.674  -2.818  -3.721  0.00  0.00     0.003 A 
ATOM      3  C3  I4B d   1      -4.133  -1.823  -2.872  0.00  0.00     0.002 A 
ATOM      4  C4  I4B d   1      -4.329  -1.912  -1.509  0.00  0.00    -0.004 A 
ATOM      5  C5  I4B d   1      -4.990  -3.012  -0.969  0.00  0.00     0.002 A 
ATOM      6  C6  I4B d   1      -5.491  -4.014  -1.813  0.00  0.00     0.003 A 
ENDROOT
BRANCH   1   7
ATOM      7  C1' I4B d   1      -5.933  -4.906  -4.117  0.00  0.00     0.060 C 
BRANCH   7   8
ATOM      8  C2' I4B d   1      -4.903  -5.999  -4.325  0.00  0.00    -0.013 C 
ATOM      9  C4' I4B d   1      -4.368  -5.982  -5.732  0.00  0.00     0.013 C 
ATOM     10  C3' I4B d   1      -3.805  -5.796  -3.324  0.00  0.00     0.013 C 
ENDBRANCH   7   8
ENDBRANCH   1   7
TORSDOF 2
ENDMDL
