MODEL 1
REMARK minimizedAffinity 6.02237368
REMARK minimizedRMSD -1
REMARK  2 active torsions:
REMARK  status: ('A' for Active; 'I' for Inactive)
REMARK    1  A    between atoms: C2'_3  and  C1'_4 
REMARK    2  A    between atoms: C1'_4  and  C1_5 
ROOT
ATOM      1  C1  I4B d   1      -5.793  -5.202  -3.722  0.00  0.00    -0.075 A 
ATOM      2  C2  I4B d   1      -5.585  -3.848  -3.641  0.00  0.00     0.003 A 
ATOM      3  C3  I4B d   1      -5.492  -3.216  -2.377  0.00  0.00     0.002 A 
ATOM      4  C4  I4B d   1      -5.662  -3.963  -1.229  0.00  0.00    -0.004 A 
ATOM      5  C5  I4B d   1      -5.850  -5.340  -1.313  0.00  0.00     0.002 A 
ATOM      6  C6  I4B d   1      -5.904  -5.965  -2.567  0.00  0.00     0.003 A 
ENDROOT
BRANCH   1   7
ATOM      7  C1' I4B d   1      -5.920  -5.832  -5.073  0.00  0.00     0.060 C 
BRANCH   7   8
ATOM      8  C2' I4B d   1      -4.880  -5.204  -5.980  0.00  0.00    -0.013 C 
ATOM      9  C4' I4B d   1      -4.986  -3.702  -5.972  0.00  0.00     0.013 C 
ATOM     10  C3' I4B d   1      -3.528  -5.654  -5.514  0.00  0.00     0.013 C 
ENDBRANCH   7   8
ENDBRANCH   1   7
TORSDOF 2
ENDMDL
