MODEL 1
REMARK minimizedAffinity 7.99765873
REMARK minimizedRMSD -1
REMARK  2 active torsions:
REMARK  status: ('A' for Active; 'I' for Inactive)
REMARK    1  A    between atoms: C2'_3  and  C1'_4 
REMARK    2  A    between atoms: C1'_4  and  C1_5 
ROOT
ATOM      1  C1  I4B d   1       3.137  -2.183   1.869  0.00  0.00    -0.075 A 
ATOM      2  C2  I4B d   1       2.372  -1.153   1.381  0.00  0.00     0.003 A 
ATOM      3  C3  I4B d   1       1.022  -1.015   1.784  0.00  0.00     0.002 A 
ATOM      4  C4  I4B d   1       0.466  -1.952   2.631  0.00  0.00    -0.004 A 
ATOM      5  C5  I4B d   1       1.250  -2.983   3.143  0.00  0.00     0.002 A 
ATOM      6  C6  I4B d   1       2.597  -3.092   2.769  0.00  0.00     0.003 A 
ENDROOT
BRANCH   1   7
ATOM      7  C1' I4B d   1       4.550  -2.319   1.396  0.00  0.00     0.060 C 
BRANCH   7   8
ATOM      8  C2' I4B d   1       5.157  -3.526   2.081  0.00  0.00    -0.013 C 
ATOM      9  C4' I4B d   1       5.972  -4.347   1.116  0.00  0.00     0.013 C 
ATOM     10  C3' I4B d   1       6.000  -3.037   3.221  0.00  0.00     0.013 C 
ENDBRANCH   7   8
ENDBRANCH   1   7
TORSDOF 2
ENDMDL
