MODEL 1
REMARK minimizedAffinity 10.3229876
REMARK minimizedRMSD -1
REMARK  2 active torsions:
REMARK  status: ('A' for Active; 'I' for Inactive)
REMARK    1  A    between atoms: C2'_3  and  C1'_4 
REMARK    2  A    between atoms: C1'_4  and  C1_5 
ROOT
ATOM      1  C1  I4B d   1      -5.250  -4.821  -3.877  0.00  0.00    -0.075 A 
ATOM      2  C2  I4B d   1      -3.878  -4.800  -3.877  0.00  0.00     0.003 A 
ATOM      3  C3  I4B d   1      -3.157  -5.370  -4.954  0.00  0.00     0.002 A 
ATOM      4  C4  I4B d   1      -3.842  -5.991  -5.978  0.00  0.00    -0.004 A 
ATOM      5  C5  I4B d   1      -5.234  -5.991  -5.987  0.00  0.00     0.002 A 
ATOM      6  C6  I4B d   1      -5.943  -5.392  -4.936  0.00  0.00     0.003 A 
ENDROOT
BRANCH   1   7
ATOM      7  C1' I4B d   1      -5.980  -4.238  -2.708  0.00  0.00     0.060 C 
BRANCH   7   8
ATOM      8  C2' I4B d   1      -5.131  -3.120  -2.138  0.00  0.00    -0.013 C 
ATOM      9  C4' I4B d   1      -5.989  -2.018  -1.575  0.00  0.00     0.013 C 
ATOM     10  C3' I4B d   1      -4.241  -3.706  -1.083  0.00  0.00     0.013 C 
ENDBRANCH   7   8
ENDBRANCH   1   7
TORSDOF 2
ENDMDL
