MODEL 1
REMARK minimizedAffinity 2.4214046
REMARK minimizedRMSD -1
REMARK  2 active torsions:
REMARK  status: ('A' for Active; 'I' for Inactive)
REMARK    1  A    between atoms: C2'_3  and  C1'_4 
REMARK    2  A    between atoms: C1'_4  and  C1_5 
ROOT
ATOM      1  C1  I4B d   1       3.396  -4.163   2.034  0.00  0.00    -0.075 A 
ATOM      2  C2  I4B d   1       3.631  -5.383   1.449  0.00  0.00     0.003 A 
ATOM      3  C3  I4B d   1       4.948  -5.758   1.089  0.00  0.00     0.002 A 
ATOM      4  C4  I4B d   1       5.985  -4.869   1.283  0.00  0.00    -0.004 A 
ATOM      5  C5  I4B d   1       5.748  -3.643   1.897  0.00  0.00     0.002 A 
ATOM      6  C6  I4B d   1       4.447  -3.292   2.286  0.00  0.00     0.003 A 
ENDROOT
BRANCH   1   7
ATOM      7  C1' I4B d   1       1.989  -3.786   2.372  0.00  0.00     0.060 C 
BRANCH   7   8
ATOM      8  C2' I4B d   1       1.999  -2.361   2.888  0.00  0.00    -0.013 C 
ATOM      9  C4' I4B d   1       1.214  -1.448   1.983  0.00  0.00     0.013 C 
ATOM     10  C3' I4B d   1       1.430  -2.368   4.276  0.00  0.00     0.013 C 
ENDBRANCH   7   8
ENDBRANCH   1   7
TORSDOF 2
ENDMDL
