MODEL 1
REMARK minimizedAffinity 0.502891362
REMARK minimizedRMSD -1
REMARK  2 active torsions:
REMARK  status: ('A' for Active; 'I' for Inactive)
REMARK    1  A    between atoms: C2'_3  and  C1'_4 
REMARK    2  A    between atoms: C1'_4  and  C1_5 
ROOT
ATOM      1  C1  I4B d   1      -5.974  -5.202  -3.270  0.00  0.00    -0.075 A 
ATOM      2  C2  I4B d   1      -5.970  -5.916  -2.098  0.00  0.00     0.003 A 
ATOM      3  C3  I4B d   1      -5.916  -5.242  -0.854  0.00  0.00     0.002 A 
ATOM      4  C4  I4B d   1      -5.818  -3.866  -0.829  0.00  0.00    -0.004 A 
ATOM      5  C5  I4B d   1      -5.846  -3.143  -2.018  0.00  0.00     0.002 A 
ATOM      6  C6  I4B d   1      -5.937  -3.814  -3.246  0.00  0.00     0.003 A 
ENDROOT
BRANCH   1   7
ATOM      7  C1' I4B d   1      -5.998  -5.946  -4.568  0.00  0.00     0.060 C 
BRANCH   7   8
ATOM      8  C2' I4B d   1      -4.684  -5.690  -5.277  0.00  0.00    -0.013 C 
ATOM      9  C4' I4B d   1      -4.605  -4.273  -5.783  0.00  0.00     0.013 C 
ATOM     10  C3' I4B d   1      -3.573  -5.983  -4.314  0.00  0.00     0.013 C 
ENDBRANCH   7   8
ENDBRANCH   1   7
TORSDOF 2
ENDMDL
