MODEL 1
REMARK minimizedAffinity 10.9698706
REMARK minimizedRMSD -1
REMARK  0 active torsions:
REMARK  status: ('A' for Active; 'I' for Inactive)
ROOT
ATOM      1  C   UNL d   1      -1.694  -5.658  -1.083  0.00  0.00     0.077 C 
ATOM      2  C1  UNL d   1      -0.200  -5.784  -1.121  0.00  0.00    -0.074 A 
ATOM      3  C2  UNL d   1       0.487  -5.834  -2.338  0.00  0.00    -0.005 A 
ATOM      4  C3  UNL d   1       1.877  -5.941  -2.358  0.00  0.00     0.006 A 
ATOM      5  C4  UNL d   1       2.594  -5.999  -1.162  0.00  0.00    -0.005 A 
ATOM      6  C5  UNL d   1       1.925  -5.949   0.065  0.00  0.00    -0.074 A 
ATOM      7  C6  UNL d   1       2.681  -6.000   1.359  0.00  0.00     0.077 C 
ATOM      8  C7  UNL d   1       0.528  -5.834   0.076  0.00  0.00    -0.001 A 
ENDROOT
TORSDOF 0
ENDMDL
