MODEL 1
REMARK minimizedAffinity 15.1143656
REMARK minimizedRMSD -1
REMARK  0 active torsions:
REMARK  status: ('A' for Active; 'I' for Inactive)
ROOT
ATOM      1  C   UNL d   1      -4.854  -1.730  -5.352  0.00  0.00     0.077 C 
ATOM      2  C1  UNL d   1      -4.961  -3.218  -5.199  0.00  0.00    -0.074 A 
ATOM      3  C2  UNL d   1      -5.834  -3.962  -5.999  0.00  0.00    -0.005 A 
ATOM      4  C3  UNL d   1      -5.915  -5.347  -5.852  0.00  0.00     0.006 A 
ATOM      5  C4  UNL d   1      -5.126  -6.000  -4.904  0.00  0.00    -0.005 A 
ATOM      6  C5  UNL d   1      -4.248  -5.272  -4.095  0.00  0.00    -0.074 A 
ATOM      7  C6  UNL d   1      -3.386  -5.960  -3.079  0.00  0.00     0.077 C 
ATOM      8  C7  UNL d   1      -4.166  -3.882  -4.254  0.00  0.00    -0.001 A 
ENDROOT
TORSDOF 0
ENDMDL
