MODEL 1
REMARK minimizedAffinity 17.7095242
REMARK minimizedRMSD -1
REMARK  0 active torsions:
REMARK  status: ('A' for Active; 'I' for Inactive)
ROOT
ATOM      1  C   UNL d   1       6.000  -0.286  -6.000  0.00  0.00     0.077 C 
ATOM      2  C1  UNL d   1       5.040  -0.665  -4.911  0.00  0.00    -0.074 A 
ATOM      3  C2  UNL d   1       3.974  -1.534  -5.163  0.00  0.00    -0.005 A 
ATOM      4  C3  UNL d   1       3.096  -1.886  -4.138  0.00  0.00     0.006 A 
ATOM      5  C4  UNL d   1       3.274  -1.372  -2.853  0.00  0.00    -0.005 A 
ATOM      6  C5  UNL d   1       4.335  -0.502  -2.582  0.00  0.00    -0.074 A 
ATOM      7  C6  UNL d   1       4.547   0.051  -1.204  0.00  0.00     0.077 C 
ATOM      8  C7  UNL d   1       5.218  -0.160  -3.616  0.00  0.00    -0.001 A 
ENDROOT
TORSDOF 0
ENDMDL
