MODEL 1
REMARK minimizedAffinity 2.94430947
REMARK minimizedRMSD -1
REMARK  0 active torsions:
REMARK  status: ('A' for Active; 'I' for Inactive)
ROOT
ATOM      1  C   UNL d   1      -4.240  -4.781  -1.728  0.00  0.00     0.077 C 
ATOM      2  C1  UNL d   1      -4.398  -4.858  -3.217  0.00  0.00    -0.074 A 
ATOM      3  C2  UNL d   1      -3.876  -5.936  -3.940  0.00  0.00    -0.005 A 
ATOM      4  C3  UNL d   1      -4.039  -5.999  -5.324  0.00  0.00     0.006 A 
ATOM      5  C4  UNL d   1      -4.723  -4.987  -5.998  0.00  0.00    -0.005 A 
ATOM      6  C5  UNL d   1      -5.253  -3.902  -5.292  0.00  0.00    -0.074 A 
ATOM      7  C6  UNL d   1      -6.000  -2.811  -6.000  0.00  0.00     0.077 C 
ATOM      8  C7  UNL d   1      -5.091  -3.849  -3.901  0.00  0.00    -0.001 A 
ENDROOT
TORSDOF 0
ENDMDL
