MODEL 1
REMARK minimizedAffinity 6.29295301
REMARK minimizedRMSD -1
REMARK  0 active torsions:
REMARK  status: ('A' for Active; 'I' for Inactive)
ROOT
ATOM      1  C   UNL d   1       1.680  -2.813  -1.932  0.00  0.00     0.077 C 
ATOM      2  C1  UNL d   1       1.511  -2.838  -0.442  0.00  0.00    -0.074 A 
ATOM      3  C2  UNL d   1       1.266  -4.038   0.233  0.00  0.00    -0.005 A 
ATOM      4  C3  UNL d   1       1.120  -4.048   1.621  0.00  0.00     0.006 A 
ATOM      5  C4  UNL d   1       1.219  -2.860   2.346  0.00  0.00    -0.005 A 
ATOM      6  C5  UNL d   1       1.465  -1.651   1.688  0.00  0.00    -0.074 A 
ATOM      7  C6  UNL d   1       1.583  -0.366   2.453  0.00  0.00     0.077 C 
ATOM      8  C7  UNL d   1       1.617  -1.650   0.295  0.00  0.00    -0.001 A 
ENDROOT
TORSDOF 0
ENDMDL
