MODEL 1
REMARK minimizedAffinity -1.54532886
REMARK minimizedRMSD -1
REMARK  0 active torsions:
REMARK  status: ('A' for Active; 'I' for Inactive)
ROOT
ATOM      1  C   UNL d   1       2.117   4.823  -2.140  0.00  0.00     0.077 C 
ATOM      2  C1  UNL d   1       3.466   5.240  -2.645  0.00  0.00    -0.074 A 
ATOM      3  C2  UNL d   1       4.507   5.531  -1.758  0.00  0.00    -0.005 A 
ATOM      4  C3  UNL d   1       5.759   5.909  -2.242  0.00  0.00     0.006 A 
ATOM      5  C4  UNL d   1       5.983   6.000  -3.616  0.00  0.00    -0.005 A 
ATOM      6  C5  UNL d   1       4.954   5.712  -4.519  0.00  0.00    -0.074 A 
ATOM      7  C6  UNL d   1       5.180   5.795  -5.999  0.00  0.00     0.077 C 
ATOM      8  C7  UNL d   1       3.701   5.326  -4.025  0.00  0.00    -0.001 A 
ENDROOT
TORSDOF 0
ENDMDL
