MODEL 1
REMARK minimizedAffinity 9.35748768
REMARK minimizedRMSD -1
REMARK  0 active torsions:
REMARK  status: ('A' for Active; 'I' for Inactive)
ROOT
ATOM      1  C   UNL d   1      -6.000   2.803  -5.246  0.00  0.00     0.077 C 
ATOM      2  C1  UNL d   1      -5.463   2.588  -3.863  0.00  0.00    -0.074 A 
ATOM      3  C2  UNL d   1      -4.482   1.623  -3.614  0.00  0.00    -0.005 A 
ATOM      4  C3  UNL d   1      -3.985   1.442  -2.323  0.00  0.00     0.006 A 
ATOM      5  C4  UNL d   1      -4.463   2.223  -1.270  0.00  0.00    -0.005 A 
ATOM      6  C5  UNL d   1      -5.443   3.194  -1.500  0.00  0.00    -0.074 A 
ATOM      7  C6  UNL d   1      -5.960   4.049  -0.381  0.00  0.00     0.077 C 
ATOM      8  C7  UNL d   1      -5.932   3.375  -2.801  0.00  0.00    -0.001 A 
ENDROOT
TORSDOF 0
ENDMDL
