MODEL 1
REMARK minimizedAffinity 12.4843836
REMARK minimizedRMSD -1
REMARK  0 active torsions:
REMARK  status: ('A' for Active; 'I' for Inactive)
ROOT
ATOM      1  C   UNL d   1       2.838  -2.087   1.818  0.00  0.00     0.077 C 
ATOM      2  C1  UNL d   1       2.990  -0.595   1.823  0.00  0.00    -0.074 A 
ATOM      3  C2  UNL d   1       3.956   0.032   1.030  0.00  0.00    -0.005 A 
ATOM      4  C3  UNL d   1       4.080   1.422   1.038  0.00  0.00     0.006 A 
ATOM      5  C4  UNL d   1       3.239   2.197   1.838  0.00  0.00    -0.005 A 
ATOM      6  C5  UNL d   1       2.267   1.588   2.637  0.00  0.00    -0.074 A 
ATOM      7  C6  UNL d   1       1.349   2.407   3.495  0.00  0.00     0.077 C 
ATOM      8  C7  UNL d   1       2.144   0.192   2.618  0.00  0.00    -0.001 A 
ENDROOT
TORSDOF 0
ENDMDL
