MODEL 1
REMARK minimizedAffinity 9.73884106
REMARK minimizedRMSD -1
REMARK  0 active torsions:
REMARK  status: ('A' for Active; 'I' for Inactive)
ROOT
ATOM      1  C   UNL d   1       2.101  -3.941   1.122  0.00  0.00     0.077 C 
ATOM      2  C1  UNL d   1       1.894  -2.695   1.930  0.00  0.00    -0.074 A 
ATOM      3  C2  UNL d   1       1.155  -2.723   3.118  0.00  0.00    -0.005 A 
ATOM      4  C3  UNL d   1       0.979  -1.558   3.864  0.00  0.00     0.006 A 
ATOM      5  C4  UNL d   1       1.538  -0.355   3.431  0.00  0.00    -0.005 A 
ATOM      6  C5  UNL d   1       2.280  -0.308   2.247  0.00  0.00    -0.074 A 
ATOM      7  C6  UNL d   1       2.896   0.975   1.773  0.00  0.00     0.077 C 
ATOM      8  C7  UNL d   1       2.459  -1.484   1.506  0.00  0.00    -0.001 A 
ENDROOT
TORSDOF 0
ENDMDL
