MODEL 1
REMARK minimizedAffinity 19.1777058
REMARK minimizedRMSD -1
REMARK  2 active torsions:
REMARK  status: ('A' for Active; 'I' for Inactive)
REMARK    1  A    between atoms: C1_2  and  C2_3 
REMARK    2  A    between atoms: C2_3  and  C3_4 
ROOT
ATOM      1  C3  UNL d   1      -3.766   4.565   0.023  0.00  0.00    -0.075 A 
ATOM      2  C4  UNL d   1      -4.595   5.248  -0.879  0.00  0.00     0.002 A 
ATOM      3  C5  UNL d   1      -5.701   5.965  -0.422  0.00  0.00     0.002 A 
ATOM      4  C6  UNL d   1      -5.998   6.000   0.939  0.00  0.00    -0.004 A 
ATOM      5  C7  UNL d   1      -5.191   5.311   1.843  0.00  0.00     0.002 A 
ATOM      6  C8  UNL d   1      -4.081   4.597   1.388  0.00  0.00     0.002 A 
ENDROOT
BRANCH   1   7
ATOM      7  C2  UNL d   1      -2.551   3.811  -0.463  0.00  0.00     0.056 C 
BRANCH   7   8
ATOM      8  C1  UNL d   1      -2.255   2.531   0.325  0.00  0.00     0.007 C 
ATOM      9  C   UNL d   1      -0.836   2.016   0.123  0.00  0.00     0.009 C 
ENDBRANCH   7   8
ENDBRANCH   1   7
TORSDOF 2
ENDMDL
