MODEL 1
REMARK minimizedAffinity 21.3448925
REMARK minimizedRMSD -1
REMARK  2 active torsions:
REMARK  status: ('A' for Active; 'I' for Inactive)
REMARK    1  A    between atoms: C1_2  and  C2_3 
REMARK    2  A    between atoms: C2_3  and  C3_4 
ROOT
ATOM      1  C3  UNL d   1      -1.161   2.657  -1.990  0.00  0.00    -0.075 A 
ATOM      2  C4  UNL d   1       0.206   2.970  -1.951  0.00  0.00     0.002 A 
ATOM      3  C5  UNL d   1       0.960   2.708  -0.807  0.00  0.00     0.002 A 
ATOM      4  C6  UNL d   1       0.357   2.140   0.314  0.00  0.00    -0.004 A 
ATOM      5  C7  UNL d   1      -1.004   1.840   0.291  0.00  0.00     0.002 A 
ATOM      6  C8  UNL d   1      -1.760   2.097  -0.854  0.00  0.00     0.002 A 
ENDROOT
BRANCH   1   7
ATOM      7  C2  UNL d   1      -1.976   2.910  -3.236  0.00  0.00     0.056 C 
BRANCH   7   8
ATOM      8  C1  UNL d   1      -1.178   3.529  -4.389  0.00  0.00     0.007 C 
ATOM      9  C   UNL d   1      -0.864   5.004  -4.178  0.00  0.00     0.009 C 
ENDBRANCH   7   8
ENDBRANCH   1   7
TORSDOF 2
ENDMDL
