MODEL 1
REMARK minimizedAffinity 18.7896633
REMARK minimizedRMSD -1
REMARK  2 active torsions:
REMARK  status: ('A' for Active; 'I' for Inactive)
REMARK    1  A    between atoms: C1_2  and  C2_3 
REMARK    2  A    between atoms: C2_3  and  C3_4 
ROOT
ATOM      1  C3  UNL d   1      -4.742   5.669  -0.921  0.00  0.00    -0.075 A 
ATOM      2  C4  UNL d   1      -3.592   5.425  -0.156  0.00  0.00     0.002 A 
ATOM      3  C5  UNL d   1      -3.649   5.455   1.238  0.00  0.00     0.002 A 
ATOM      4  C6  UNL d   1      -4.850   5.739   1.883  0.00  0.00    -0.004 A 
ATOM      5  C7  UNL d   1      -5.995   6.000   1.133  0.00  0.00     0.002 A 
ATOM      6  C8  UNL d   1      -5.942   5.966  -0.261  0.00  0.00     0.002 A 
ENDROOT
BRANCH   1   7
ATOM      7  C2  UNL d   1      -4.694   5.609  -2.429  0.00  0.00     0.056 C 
BRANCH   7   8
ATOM      8  C1  UNL d   1      -3.569   4.728  -2.982  0.00  0.00     0.007 C 
ATOM      9  C   UNL d   1      -4.078   3.502  -3.729  0.00  0.00     0.009 C 
ENDBRANCH   7   8
ENDBRANCH   1   7
TORSDOF 2
ENDMDL
