MODEL 1
REMARK minimizedAffinity 5.10827446
REMARK minimizedRMSD -1
REMARK  2 active torsions:
REMARK  status: ('A' for Active; 'I' for Inactive)
REMARK    1  A    between atoms: C1_2  and  C2_3 
REMARK    2  A    between atoms: C2_3  and  C3_4 
ROOT
ATOM      1  C3  UNL d   1       1.739  -3.088  -3.305  0.00  0.00    -0.075 A 
ATOM      2  C4  UNL d   1       0.691  -2.674  -4.140  0.00  0.00     0.002 A 
ATOM      3  C5  UNL d   1       0.931  -2.372  -5.481  0.00  0.00     0.002 A 
ATOM      4  C6  UNL d   1       2.220  -2.468  -6.000  0.00  0.00    -0.004 A 
ATOM      5  C7  UNL d   1       3.272  -2.861  -5.175  0.00  0.00     0.002 A 
ATOM      6  C8  UNL d   1       3.034  -3.169  -3.834  0.00  0.00     0.002 A 
ENDROOT
BRANCH   1   7
ATOM      7  C2  UNL d   1       1.481  -3.445  -1.861  0.00  0.00     0.056 C 
BRANCH   7   8
ATOM      8  C1  UNL d   1       1.183  -2.239  -0.963  0.00  0.00     0.007 C 
ATOM      9  C   UNL d   1       2.026  -2.212   0.305  0.00  0.00     0.009 C 
ENDBRANCH   7   8
ENDBRANCH   1   7
TORSDOF 2
ENDMDL
