MODEL 1
REMARK minimizedAffinity 14.4071751
REMARK minimizedRMSD -1
REMARK  2 active torsions:
REMARK  status: ('A' for Active; 'I' for Inactive)
REMARK    1  A    between atoms: C1_2  and  C2_3 
REMARK    2  A    between atoms: C2_3  and  C3_4 
ROOT
ATOM      1  C3  UNL d   1      -5.093   5.676   1.324  0.00  0.00    -0.075 A 
ATOM      2  C4  UNL d   1      -3.699   5.536   1.262  0.00  0.00     0.002 A 
ATOM      3  C5  UNL d   1      -3.067   5.266   0.048  0.00  0.00     0.002 A 
ATOM      4  C6  UNL d   1      -3.819   5.122  -1.115  0.00  0.00    -0.004 A 
ATOM      5  C7  UNL d   1      -5.206   5.242  -1.063  0.00  0.00     0.002 A 
ATOM      6  C8  UNL d   1      -5.841   5.517   0.150  0.00  0.00     0.002 A 
ENDROOT
BRANCH   1   7
ATOM      7  C2  UNL d   1      -5.780   5.998   2.629  0.00  0.00     0.056 C 
BRANCH   7   8
ATOM      8  C1  UNL d   1      -4.851   5.968   3.847  0.00  0.00     0.007 C 
ATOM      9  C   UNL d   1      -5.599   5.997   5.174  0.00  0.00     0.009 C 
ENDBRANCH   7   8
ENDBRANCH   1   7
TORSDOF 2
ENDMDL
