MODEL 1
REMARK minimizedAffinity 20.5407238
REMARK minimizedRMSD -1
REMARK  2 active torsions:
REMARK  status: ('A' for Active; 'I' for Inactive)
REMARK    1  A    between atoms: C1_2  and  C2_3 
REMARK    2  A    between atoms: C2_3  and  C3_4 
ROOT
ATOM      1  C3  UNL d   1      -4.147   5.444  -1.200  0.00  0.00    -0.075 A 
ATOM      2  C4  UNL d   1      -5.504   5.662  -0.922  0.00  0.00     0.002 A 
ATOM      3  C5  UNL d   1      -5.925   5.941   0.378  0.00  0.00     0.002 A 
ATOM      4  C6  UNL d   1      -4.998   5.997   1.417  0.00  0.00    -0.004 A 
ATOM      5  C7  UNL d   1      -3.649   5.765   1.155  0.00  0.00     0.002 A 
ATOM      6  C8  UNL d   1      -3.225   5.490  -0.146  0.00  0.00     0.002 A 
ENDROOT
BRANCH   1   7
ATOM      7  C2  UNL d   1      -3.681   5.170  -2.611  0.00  0.00     0.056 C 
BRANCH   7   8
ATOM      8  C1  UNL d   1      -2.208   4.763  -2.713  0.00  0.00     0.007 C 
ATOM      9  C   UNL d   1      -2.011   3.351  -3.249  0.00  0.00     0.009 C 
ENDBRANCH   7   8
ENDBRANCH   1   7
TORSDOF 2
ENDMDL
