MODEL 1
REMARK minimizedAffinity 12.2642231
REMARK minimizedRMSD -1
REMARK  2 active torsions:
REMARK  status: ('A' for Active; 'I' for Inactive)
REMARK    1  A    between atoms: C1_2  and  C2_3 
REMARK    2  A    between atoms: C2_3  and  C3_4 
ROOT
ATOM      1  C3  UNL d   1       1.953  -4.060  -4.598  0.00  0.00    -0.075 A 
ATOM      2  C4  UNL d   1       1.448  -5.360  -4.448  0.00  0.00     0.002 A 
ATOM      3  C5  UNL d   1       1.494  -5.999  -3.209  0.00  0.00     0.002 A 
ATOM      4  C6  UNL d   1       2.053  -5.353  -2.109  0.00  0.00    -0.004 A 
ATOM      5  C7  UNL d   1       2.573  -4.068  -2.250  0.00  0.00     0.002 A 
ATOM      6  C8  UNL d   1       2.524  -3.424  -3.488  0.00  0.00     0.002 A 
ENDROOT
BRANCH   1   7
ATOM      7  C2  UNL d   1       1.879  -3.352  -5.930  0.00  0.00     0.056 C 
BRANCH   7   8
ATOM      8  C1  UNL d   1       2.712  -2.068  -6.000  0.00  0.00     0.007 C 
ATOM      9  C   UNL d   1       1.865  -0.802  -6.000  0.00  0.00     0.009 C 
ENDBRANCH   7   8
ENDBRANCH   1   7
TORSDOF 2
ENDMDL
