MODEL 1
REMARK minimizedAffinity 7.66967344
REMARK minimizedRMSD -1
REMARK  2 active torsions:
REMARK  status: ('A' for Active; 'I' for Inactive)
REMARK    1  A    between atoms: C1_2  and  C2_3 
REMARK    2  A    between atoms: C2_3  and  C3_4 
ROOT
ATOM      1  C3  UNL d   1      -0.182   3.401   0.018  0.00  0.00    -0.075 A 
ATOM      2  C4  UNL d   1       0.149   3.621  -1.327  0.00  0.00     0.002 A 
ATOM      3  C5  UNL d   1       0.151   4.913  -1.854  0.00  0.00     0.002 A 
ATOM      4  C6  UNL d   1      -0.186   5.998  -1.047  0.00  0.00    -0.004 A 
ATOM      5  C7  UNL d   1      -0.533   5.789   0.286  0.00  0.00     0.002 A 
ATOM      6  C8  UNL d   1      -0.532   4.498   0.816  0.00  0.00     0.002 A 
ENDROOT
BRANCH   1   7
ATOM      7  C2  UNL d   1      -0.158   2.008   0.601  0.00  0.00     0.056 C 
BRANCH   7   8
ATOM      8  C1  UNL d   1      -1.200   1.775   1.700  0.00  0.00     0.007 C 
ATOM      9  C   UNL d   1      -2.575   1.411   1.156  0.00  0.00     0.009 C 
ENDBRANCH   7   8
ENDBRANCH   1   7
TORSDOF 2
ENDMDL
