MODEL 1
REMARK minimizedAffinity -3.377141
REMARK minimizedRMSD -1
REMARK  2 active torsions:
REMARK  status: ('A' for Active; 'I' for Inactive)
REMARK    1  A    between atoms: C1_2  and  C2_3 
REMARK    2  A    between atoms: C2_3  and  C3_4 
ROOT
ATOM      1  C3  UNL d   1      -0.975   1.617   1.423  0.00  0.00    -0.075 A 
ATOM      2  C4  UNL d   1      -2.370   1.759   1.461  0.00  0.00     0.002 A 
ATOM      3  C5  UNL d   1      -3.103   1.266   2.542  0.00  0.00     0.002 A 
ATOM      4  C6  UNL d   1      -2.453   0.618   3.590  0.00  0.00    -0.004 A 
ATOM      5  C7  UNL d   1      -1.070   0.457   3.555  0.00  0.00     0.002 A 
ATOM      6  C8  UNL d   1      -0.334   0.953   2.477  0.00  0.00     0.002 A 
ENDROOT
BRANCH   1   7
ATOM      7  C2  UNL d   1      -0.173   2.174   0.271  0.00  0.00     0.056 C 
BRANCH   7   8
ATOM      8  C1  UNL d   1      -0.194   3.703   0.178  0.00  0.00     0.007 C 
ATOM      9  C   UNL d   1      -0.513   4.215  -1.220  0.00  0.00     0.009 C 
ENDBRANCH   7   8
ENDBRANCH   1   7
TORSDOF 2
ENDMDL
