MODEL 1
REMARK minimizedAffinity 2.88540792
REMARK minimizedRMSD -1
REMARK  2 active torsions:
REMARK  status: ('A' for Active; 'I' for Inactive)
REMARK    1  A    between atoms: C1_2  and  C2_3 
REMARK    2  A    between atoms: C2_3  and  C3_4 
ROOT
ATOM      1  C3  UNL d   1      -0.401   2.696   0.437  0.00  0.00    -0.075 A 
ATOM      2  C4  UNL d   1      -0.363   2.440  -0.941  0.00  0.00     0.002 A 
ATOM      3  C5  UNL d   1      -0.203   3.485  -1.852  0.00  0.00     0.002 A 
ATOM      4  C6  UNL d   1      -0.091   4.797  -1.398  0.00  0.00    -0.004 A 
ATOM      5  C7  UNL d   1      -0.144   5.065  -0.031  0.00  0.00     0.002 A 
ATOM      6  C8  UNL d   1      -0.300   4.021   0.882  0.00  0.00     0.002 A 
ENDROOT
BRANCH   1   7
ATOM      7  C2  UNL d   1      -0.544   1.567   1.429  0.00  0.00     0.056 C 
BRANCH   7   8
ATOM      8  C1  UNL d   1      -1.547   1.846   2.553  0.00  0.00     0.007 C 
ATOM      9  C   UNL d   1      -1.482   0.829   3.684  0.00  0.00     0.009 C 
ENDBRANCH   7   8
ENDBRANCH   1   7
TORSDOF 2
ENDMDL
