MODEL 1
REMARK minimizedAffinity 8.72602749
REMARK minimizedRMSD -1
REMARK  2 active torsions:
REMARK  status: ('A' for Active; 'I' for Inactive)
REMARK    1  A    between atoms: C1_2  and  C2_3 
REMARK    2  A    between atoms: C2_3  and  C3_4 
ROOT
ATOM      1  C3  UNL d   1      -1.268   2.908  -1.855  0.00  0.00    -0.075 A 
ATOM      2  C4  UNL d   1      -0.649   2.415  -0.697  0.00  0.00     0.002 A 
ATOM      3  C5  UNL d   1       0.241   3.212   0.024  0.00  0.00     0.002 A 
ATOM      4  C6  UNL d   1       0.530   4.505  -0.407  0.00  0.00    -0.004 A 
ATOM      5  C7  UNL d   1      -0.067   4.998  -1.565  0.00  0.00     0.002 A 
ATOM      6  C8  UNL d   1      -0.961   4.205  -2.286  0.00  0.00     0.002 A 
ENDROOT
BRANCH   1   7
ATOM      7  C2  UNL d   1      -2.254   2.061  -2.623  0.00  0.00     0.056 C 
BRANCH   7   8
ATOM      8  C1  UNL d   1      -3.353   1.440  -1.755  0.00  0.00     0.007 C 
ATOM      9  C   UNL d   1      -3.030   0.022  -1.301  0.00  0.00     0.009 C 
ENDBRANCH   7   8
ENDBRANCH   1   7
TORSDOF 2
ENDMDL
