MODEL 1
REMARK minimizedAffinity 4.40607309
REMARK minimizedRMSD -1
REMARK  2 active torsions:
REMARK  status: ('A' for Active; 'I' for Inactive)
REMARK    1  A    between atoms: C1_2  and  C2_3 
REMARK    2  A    between atoms: C2_3  and  C3_4 
ROOT
ATOM      1  C3  UNL d   1      -0.836   3.599  -2.061  0.00  0.00    -0.075 A 
ATOM      2  C4  UNL d   1      -0.487   4.954  -2.163  0.00  0.00     0.002 A 
ATOM      3  C5  UNL d   1       0.255   5.571  -1.155  0.00  0.00     0.002 A 
ATOM      4  C6  UNL d   1       0.647   4.847  -0.031  0.00  0.00    -0.004 A 
ATOM      5  C7  UNL d   1       0.291   3.505   0.088  0.00  0.00     0.002 A 
ATOM      6  C8  UNL d   1      -0.447   2.884  -0.921  0.00  0.00     0.002 A 
ENDROOT
BRANCH   1   7
ATOM      7  C2  UNL d   1      -1.613   2.918  -3.162  0.00  0.00     0.056 C 
BRANCH   7   8
ATOM      8  C1  UNL d   1      -3.078   2.638  -2.810  0.00  0.00     0.007 C 
ATOM      9  C   UNL d   1      -3.370   1.161  -2.584  0.00  0.00     0.009 C 
ENDBRANCH   7   8
ENDBRANCH   1   7
TORSDOF 2
ENDMDL
