MODEL 1
REMARK minimizedAffinity 3.19780564
REMARK minimizedRMSD -1
REMARK  2 active torsions:
REMARK  status: ('A' for Active; 'I' for Inactive)
REMARK    1  A    between atoms: C1_2  and  C2_3 
REMARK    2  A    between atoms: C2_3  and  C3_4 
ROOT
ATOM      1  C3  UNL d   1      -0.310   3.042   0.056  0.00  0.00    -0.075 A 
ATOM      2  C4  UNL d   1      -0.727   2.986  -1.282  0.00  0.00     0.002 A 
ATOM      3  C5  UNL d   1      -0.532   4.075  -2.131  0.00  0.00     0.002 A 
ATOM      4  C6  UNL d   1       0.073   5.235  -1.653  0.00  0.00    -0.004 A 
ATOM      5  C7  UNL d   1       0.476   5.308  -0.321  0.00  0.00     0.002 A 
ATOM      6  C8  UNL d   1       0.286   4.218   0.530  0.00  0.00     0.002 A 
ENDROOT
BRANCH   1   7
ATOM      7  C2  UNL d   1      -0.492   1.855   0.973  0.00  0.00     0.056 C 
BRANCH   7   8
ATOM      8  C1  UNL d   1      -1.933   1.652   1.451  0.00  0.00     0.007 C 
ATOM      9  C   UNL d   1      -2.037   0.765   2.685  0.00  0.00     0.009 C 
ENDBRANCH   7   8
ENDBRANCH   1   7
TORSDOF 2
ENDMDL
