MODEL 1
REMARK minimizedAffinity 9.55030632
REMARK minimizedRMSD -1
REMARK  2 active torsions:
REMARK  status: ('A' for Active; 'I' for Inactive)
REMARK    1  A    between atoms: C1_2  and  C2_3 
REMARK    2  A    between atoms: C2_3  and  C3_4 
ROOT
ATOM      1  C3  UNL d   1      -0.402   2.728  -0.322  0.00  0.00    -0.075 A 
ATOM      2  C4  UNL d   1       0.086   3.965   0.124  0.00  0.00     0.002 A 
ATOM      3  C5  UNL d   1       0.029   5.088  -0.701  0.00  0.00     0.002 A 
ATOM      4  C6  UNL d   1      -0.506   4.988  -1.983  0.00  0.00    -0.004 A 
ATOM      5  C7  UNL d   1      -0.978   3.761  -2.443  0.00  0.00     0.002 A 
ATOM      6  C8  UNL d   1      -0.927   2.636  -1.618  0.00  0.00     0.002 A 
ENDROOT
BRANCH   1   7
ATOM      7  C2  UNL d   1      -0.370   1.515   0.577  0.00  0.00     0.056 C 
BRANCH   7   8
ATOM      8  C1  UNL d   1      -1.629   1.341   1.434  0.00  0.00     0.007 C 
ATOM      9  C   UNL d   1      -1.355   0.670   2.773  0.00  0.00     0.009 C 
ENDBRANCH   7   8
ENDBRANCH   1   7
TORSDOF 2
ENDMDL
