MODEL 1
REMARK minimizedAffinity 5.17415905
REMARK minimizedRMSD -1
REMARK  2 active torsions:
REMARK  status: ('A' for Active; 'I' for Inactive)
REMARK    1  A    between atoms: C1_2  and  C2_3 
REMARK    2  A    between atoms: C2_3  and  C3_4 
ROOT
ATOM      1  C3  UNL d   1      -0.175   3.202   0.776  0.00  0.00    -0.075 A 
ATOM      2  C4  UNL d   1      -0.462   2.242  -0.205  0.00  0.00     0.002 A 
ATOM      3  C5  UNL d   1      -0.298   2.541  -1.558  0.00  0.00     0.002 A 
ATOM      4  C6  UNL d   1       0.143   3.804  -1.947  0.00  0.00    -0.004 A 
ATOM      5  C7  UNL d   1       0.415   4.770  -0.981  0.00  0.00     0.002 A 
ATOM      6  C8  UNL d   1       0.257   4.472   0.373  0.00  0.00     0.002 A 
ENDROOT
BRANCH   1   7
ATOM      7  C2  UNL d   1      -0.322   2.875   2.243  0.00  0.00     0.056 C 
BRANCH   7   8
ATOM      8  C1  UNL d   1      -0.877   1.473   2.517  0.00  0.00     0.007 C 
ATOM      9  C   UNL d   1      -2.350   1.475   2.901  0.00  0.00     0.009 C 
ENDBRANCH   7   8
ENDBRANCH   1   7
TORSDOF 2
ENDMDL
