MODEL 1
REMARK minimizedAffinity 8.21287632
REMARK minimizedRMSD -1
REMARK  0 active torsions:
REMARK  status: ('A' for Active; 'I' for Inactive)
ROOT
ATOM      1  C   UNL d   1      -4.597   4.308   5.666  0.00  0.00     0.077 C 
ATOM      2  C1  UNL d   1      -4.689   2.944   5.050  0.00  0.00    -0.074 A 
ATOM      3  C2  UNL d   1      -4.183   2.698   3.769  0.00  0.00    -0.005 A 
ATOM      4  C3  UNL d   1      -4.268   1.422   3.213  0.00  0.00     0.006 A 
ATOM      5  C4  UNL d   1      -4.859   0.381   3.929  0.00  0.00    -0.005 A 
ATOM      6  C5  UNL d   1      -5.370   0.608   5.211  0.00  0.00    -0.074 A 
ATOM      7  C6  UNL d   1      -5.999  -0.503   5.999  0.00  0.00     0.077 C 
ATOM      8  C7  UNL d   1      -5.275   1.891   5.766  0.00  0.00    -0.001 A 
ENDROOT
TORSDOF 0
ENDMDL
