MODEL 1
REMARK minimizedAffinity 14.1967487
REMARK minimizedRMSD -1
REMARK  0 active torsions:
REMARK  status: ('A' for Active; 'I' for Inactive)
ROOT
ATOM      1  C   UNL d   1      -6.000  -0.738   5.961  0.00  0.00     0.077 C 
ATOM      2  C1  UNL d   1      -5.465   0.471   5.252  0.00  0.00    -0.074 A 
ATOM      3  C2  UNL d   1      -5.024   0.390   3.927  0.00  0.00    -0.005 A 
ATOM      4  C3  UNL d   1      -4.538   1.525   3.278  0.00  0.00     0.006 A 
ATOM      5  C4  UNL d   1      -4.488   2.749   3.945  0.00  0.00    -0.005 A 
ATOM      6  C5  UNL d   1      -4.926   2.849   5.269  0.00  0.00    -0.074 A 
ATOM      7  C6  UNL d   1      -4.888   4.160   5.998  0.00  0.00     0.077 C 
ATOM      8  C7  UNL d   1      -5.419   1.706   5.913  0.00  0.00    -0.001 A 
ENDROOT
TORSDOF 0
ENDMDL
