MODEL 1
REMARK minimizedAffinity 0.618873417
REMARK minimizedRMSD -1
REMARK  0 active torsions:
REMARK  status: ('A' for Active; 'I' for Inactive)
ROOT
ATOM      1  C   UNL d   1       5.992   5.998  -5.974  0.00  0.00     0.077 C 
ATOM      2  C1  UNL d   1       5.243   4.833  -5.398  0.00  0.00    -0.074 A 
ATOM      3  C2  UNL d   1       3.869   4.684  -5.613  0.00  0.00    -0.005 A 
ATOM      4  C3  UNL d   1       3.188   3.591  -5.079  0.00  0.00     0.006 A 
ATOM      5  C4  UNL d   1       3.873   2.637  -4.325  0.00  0.00    -0.005 A 
ATOM      6  C5  UNL d   1       5.247   2.769  -4.099  0.00  0.00    -0.074 A 
ATOM      7  C6  UNL d   1       6.000   1.747  -3.300  0.00  0.00     0.077 C 
ATOM      8  C7  UNL d   1       5.926   3.867  -4.646  0.00  0.00    -0.001 A 
ENDROOT
TORSDOF 0
ENDMDL
