MODEL 1
REMARK minimizedAffinity 15.0458231
REMARK minimizedRMSD -1
REMARK  0 active torsions:
REMARK  status: ('A' for Active; 'I' for Inactive)
ROOT
ATOM      1  C   UNL d   1       4.151  -0.259   0.692  0.00  0.00     0.077 C 
ATOM      2  C1  UNL d   1       3.065   0.575   1.305  0.00  0.00    -0.074 A 
ATOM      3  C2  UNL d   1       2.648   1.767   0.704  0.00  0.00    -0.005 A 
ATOM      4  C3  UNL d   1       1.630   2.527   1.281  0.00  0.00     0.006 A 
ATOM      5  C4  UNL d   1       1.021   2.103   2.463  0.00  0.00    -0.005 A 
ATOM      6  C5  UNL d   1       1.424   0.913   3.077  0.00  0.00    -0.074 A 
ATOM      7  C6  UNL d   1       0.773   0.439   4.342  0.00  0.00     0.077 C 
ATOM      8  C7  UNL d   1       2.443   0.152   2.488  0.00  0.00    -0.001 A 
ENDROOT
TORSDOF 0
ENDMDL
