MODEL 1
REMARK minimizedAffinity 14.5873289
REMARK minimizedRMSD -1
REMARK  0 active torsions:
REMARK  status: ('A' for Active; 'I' for Inactive)
ROOT
ATOM      1  C   UNL d   1       3.723   1.495  -2.458  0.00  0.00     0.077 C 
ATOM      2  C1  UNL d   1       3.336   2.397  -3.592  0.00  0.00    -0.074 A 
ATOM      3  C2  UNL d   1       3.525   2.004  -4.921  0.00  0.00    -0.005 A 
ATOM      4  C3  UNL d   1       3.150   2.850  -5.965  0.00  0.00     0.006 A 
ATOM      5  C4  UNL d   1       2.584   4.095  -5.691  0.00  0.00    -0.005 A 
ATOM      6  C5  UNL d   1       2.387   4.505  -4.369  0.00  0.00    -0.074 A 
ATOM      7  C6  UNL d   1       1.771   5.837  -4.057  0.00  0.00     0.077 C 
ATOM      8  C7  UNL d   1       2.759   3.647  -3.325  0.00  0.00    -0.001 A 
ENDROOT
TORSDOF 0
ENDMDL
