MODEL 1
REMARK minimizedAffinity 11.0438461
REMARK minimizedRMSD -1
REMARK  0 active torsions:
REMARK  status: ('A' for Active; 'I' for Inactive)
ROOT
ATOM      1  C   UNL d   1      -1.679  -4.015  -2.583  0.00  0.00     0.077 C 
ATOM      2  C1  UNL d   1      -3.132  -4.282  -2.845  0.00  0.00    -0.074 A 
ATOM      3  C2  UNL d   1      -3.772  -5.391  -2.282  0.00  0.00    -0.005 A 
ATOM      4  C3  UNL d   1      -5.126  -5.621  -2.527  0.00  0.00     0.006 A 
ATOM      5  C4  UNL d   1      -5.852  -4.746  -3.336  0.00  0.00    -0.005 A 
ATOM      6  C5  UNL d   1      -5.229  -3.632  -3.907  0.00  0.00    -0.074 A 
ATOM      7  C6  UNL d   1      -5.998  -2.676  -4.770  0.00  0.00     0.077 C 
ATOM      8  C7  UNL d   1      -3.870  -3.404  -3.650  0.00  0.00    -0.001 A 
ENDROOT
TORSDOF 0
ENDMDL
