MODEL 1
REMARK minimizedAffinity 17.3287411
REMARK minimizedRMSD -1
REMARK  0 active torsions:
REMARK  status: ('A' for Active; 'I' for Inactive)
ROOT
ATOM      1  C   UNL d   1       1.673   4.470  -4.648  0.00  0.00     0.077 C 
ATOM      2  C1  UNL d   1       2.513   3.354  -4.102  0.00  0.00    -0.074 A 
ATOM      3  C2  UNL d   1       2.820   3.286  -2.739  0.00  0.00    -0.005 A 
ATOM      4  C3  UNL d   1       3.594   2.237  -2.244  0.00  0.00     0.006 A 
ATOM      5  C4  UNL d   1       4.070   1.247  -3.105  0.00  0.00    -0.005 A 
ATOM      6  C5  UNL d   1       3.773   1.298  -4.470  0.00  0.00    -0.074 A 
ATOM      7  C6  UNL d   1       4.267   0.237  -5.408  0.00  0.00     0.077 C 
ATOM      8  C7  UNL d   1       2.988   2.352  -4.959  0.00  0.00    -0.001 A 
ENDROOT
TORSDOF 0
ENDMDL
