MODEL 1
REMARK minimizedAffinity 5.29932213
REMARK minimizedRMSD -1
REMARK  0 active torsions:
REMARK  status: ('A' for Active; 'I' for Inactive)
ROOT
ATOM      1  C   UNL d   1       4.017  -0.531   3.714  0.00  0.00     0.077 C 
ATOM      2  C1  UNL d   1       2.772   0.295   3.846  0.00  0.00    -0.074 A 
ATOM      3  C2  UNL d   1       1.881   0.089   4.904  0.00  0.00    -0.005 A 
ATOM      4  C3  UNL d   1       0.732   0.871   5.019  0.00  0.00     0.006 A 
ATOM      5  C4  UNL d   1       0.462   1.866   4.078  0.00  0.00    -0.005 A 
ATOM      6  C5  UNL d   1       1.341   2.087   3.014  0.00  0.00    -0.074 A 
ATOM      7  C6  UNL d   1       1.072   3.158   1.999  0.00  0.00     0.077 C 
ATOM      8  C7  UNL d   1       2.498   1.301   2.909  0.00  0.00    -0.001 A 
ENDROOT
TORSDOF 0
ENDMDL
