MODEL 1
REMARK minimizedAffinity 22.2486019
REMARK minimizedRMSD -1
REMARK  0 active torsions:
REMARK  status: ('A' for Active; 'I' for Inactive)
ROOT
ATOM      1  C   UNL d   1      -3.922  -5.999   0.538  0.00  0.00     0.077 C 
ATOM      2  C1  UNL d   1      -4.346  -5.512  -0.816  0.00  0.00    -0.074 A 
ATOM      3  C2  UNL d   1      -5.508  -5.999  -1.424  0.00  0.00    -0.005 A 
ATOM      4  C3  UNL d   1      -5.894  -5.530  -2.679  0.00  0.00     0.006 A 
ATOM      5  C4  UNL d   1      -5.124  -4.571  -3.339  0.00  0.00    -0.005 A 
ATOM      6  C5  UNL d   1      -3.959  -4.072  -2.746  0.00  0.00    -0.074 A 
ATOM      7  C6  UNL d   1      -3.125  -3.034  -3.437  0.00  0.00     0.077 C 
ATOM      8  C7  UNL d   1      -3.582  -4.543  -1.481  0.00  0.00    -0.001 A 
ENDROOT
TORSDOF 0
ENDMDL
