MODEL 1
REMARK minimizedAffinity 12.0616741
REMARK minimizedRMSD -1
REMARK  0 active torsions:
REMARK  status: ('A' for Active; 'I' for Inactive)
ROOT
ATOM      1  C   UNL d   1      -1.524  -3.358   1.587  0.00  0.00     0.077 C 
ATOM      2  C1  UNL d   1      -1.573  -2.804   0.195  0.00  0.00    -0.074 A 
ATOM      3  C2  UNL d   1      -0.692  -1.796  -0.210  0.00  0.00    -0.005 A 
ATOM      4  C3  UNL d   1      -0.743  -1.297  -1.511  0.00  0.00     0.006 A 
ATOM      5  C4  UNL d   1      -1.676  -1.799  -2.420  0.00  0.00    -0.005 A 
ATOM      6  C5  UNL d   1      -2.565  -2.807  -2.034  0.00  0.00    -0.074 A 
ATOM      7  C6  UNL d   1      -3.566  -3.365  -3.001  0.00  0.00     0.077 C 
ATOM      8  C7  UNL d   1      -2.502  -3.309  -0.727  0.00  0.00    -0.001 A 
ENDROOT
TORSDOF 0
ENDMDL
