MODEL 1
REMARK minimizedAffinity 20.1827927
REMARK minimizedRMSD -1
REMARK  0 active torsions:
REMARK  status: ('A' for Active; 'I' for Inactive)
ROOT
ATOM      1  C   UNL d   1      -3.479  -6.000   1.873  0.00  0.00     0.077 C 
ATOM      2  C1  UNL d   1      -2.756  -4.824   1.287  0.00  0.00    -0.074 A 
ATOM      3  C2  UNL d   1      -1.828  -4.101   2.044  0.00  0.00    -0.005 A 
ATOM      4  C3  UNL d   1      -1.156  -3.016   1.482  0.00  0.00     0.006 A 
ATOM      5  C4  UNL d   1      -1.405  -2.642   0.161  0.00  0.00    -0.005 A 
ATOM      6  C5  UNL d   1      -2.329  -3.353  -0.611  0.00  0.00    -0.074 A 
ATOM      7  C6  UNL d   1      -2.600  -2.971  -2.036  0.00  0.00     0.077 C 
ATOM      8  C7  UNL d   1      -2.995  -4.447  -0.042  0.00  0.00    -0.001 A 
ENDROOT
TORSDOF 0
ENDMDL
