MODEL 1
REMARK minimizedAffinity 14.1444445
REMARK minimizedRMSD -1
REMARK  0 active torsions:
REMARK  status: ('A' for Active; 'I' for Inactive)
ROOT
ATOM      1  C   UNL d   1       2.593   2.806  -0.517  0.00  0.00     0.077 C 
ATOM      2  C1  UNL d   1       2.714   2.557  -1.991  0.00  0.00    -0.074 A 
ATOM      3  C2  UNL d   1       2.040   3.364  -2.914  0.00  0.00    -0.005 A 
ATOM      4  C3  UNL d   1       2.170   3.126  -4.282  0.00  0.00     0.006 A 
ATOM      5  C4  UNL d   1       2.973   2.081  -4.741  0.00  0.00    -0.005 A 
ATOM      6  C5  UNL d   1       3.655   1.264  -3.833  0.00  0.00    -0.074 A 
ATOM      7  C6  UNL d   1       4.530   0.143  -4.310  0.00  0.00     0.077 C 
ATOM      8  C7  UNL d   1       3.525   1.514  -2.460  0.00  0.00    -0.001 A 
ENDROOT
TORSDOF 0
ENDMDL
