MODEL 1
REMARK minimizedAffinity 5.02802801
REMARK minimizedRMSD -1
REMARK  0 active torsions:
REMARK  status: ('A' for Active; 'I' for Inactive)
ROOT
ATOM      1  C   UNL d   1       4.876   3.889   1.128  0.00  0.00     0.077 C 
ATOM      2  C1  UNL d   1       5.031   2.404   0.986  0.00  0.00    -0.074 A 
ATOM      3  C2  UNL d   1       5.858   1.858  -0.000  0.00  0.00    -0.005 A 
ATOM      4  C3  UNL d   1       6.000   0.475  -0.114  0.00  0.00     0.006 A 
ATOM      5  C4  UNL d   1       5.316  -0.375   0.757  0.00  0.00    -0.005 A 
ATOM      6  C5  UNL d   1       4.485   0.152   1.750  0.00  0.00    -0.074 A 
ATOM      7  C6  UNL d   1       3.751  -0.747   2.700  0.00  0.00     0.077 C 
ATOM      8  C7  UNL d   1       4.354   1.543   1.862  0.00  0.00    -0.001 A 
ENDROOT
TORSDOF 0
ENDMDL
