MODEL 1
REMARK minimizedAffinity 12.0104256
REMARK minimizedRMSD -1
REMARK  0 active torsions:
REMARK  status: ('A' for Active; 'I' for Inactive)
ROOT
ATOM      1  C   UNL d   1       0.614   0.713   4.837  0.00  0.00     0.077 C 
ATOM      2  C1  UNL d   1       1.042   1.292   3.521  0.00  0.00    -0.074 A 
ATOM      3  C2  UNL d   1       0.454   2.460   3.024  0.00  0.00    -0.005 A 
ATOM      4  C3  UNL d   1       0.869   2.992   1.804  0.00  0.00     0.006 A 
ATOM      5  C4  UNL d   1       1.876   2.364   1.069  0.00  0.00    -0.005 A 
ATOM      6  C5  UNL d   1       2.476   1.196   1.551  0.00  0.00    -0.074 A 
ATOM      7  C6  UNL d   1       3.566   0.514   0.779  0.00  0.00     0.077 C 
ATOM      8  C7  UNL d   1       2.058   0.671   2.781  0.00  0.00    -0.001 A 
ENDROOT
TORSDOF 0
ENDMDL
