MODEL 1
REMARK minimizedAffinity 17.9449482
REMARK minimizedRMSD -1
REMARK  0 active torsions:
REMARK  status: ('A' for Active; 'I' for Inactive)
ROOT
ATOM      1  C   UNL d   1      -4.626  -6.000   0.753  0.00  0.00     0.077 C 
ATOM      2  C1  UNL d   1      -3.308  -5.342   1.035  0.00  0.00    -0.074 A 
ATOM      3  C2  UNL d   1      -2.320  -6.000   1.773  0.00  0.00    -0.005 A 
ATOM      4  C3  UNL d   1      -1.095  -5.379   2.019  0.00  0.00     0.006 A 
ATOM      5  C4  UNL d   1      -0.847  -4.096   1.529  0.00  0.00    -0.005 A 
ATOM      6  C5  UNL d   1      -1.824  -3.423   0.787  0.00  0.00    -0.074 A 
ATOM      7  C6  UNL d   1      -1.570  -2.048   0.245  0.00  0.00     0.077 C 
ATOM      8  C7  UNL d   1      -3.049  -4.056   0.539  0.00  0.00    -0.001 A 
ENDROOT
TORSDOF 0
ENDMDL
