MODEL 1
REMARK minimizedAffinity 5.28527212
REMARK minimizedRMSD -1
REMARK  0 active torsions:
REMARK  status: ('A' for Active; 'I' for Inactive)
ROOT
ATOM      1  C   UNL d   1       5.897   5.306  -5.981  0.00  0.00     0.077 C 
ATOM      2  C1  UNL d   1       4.808   4.276  -5.980  0.00  0.00    -0.074 A 
ATOM      3  C2  UNL d   1       3.461   4.653  -5.990  0.00  0.00    -0.005 A 
ATOM      4  C3  UNL d   1       2.459   3.683  -5.999  0.00  0.00     0.006 A 
ATOM      5  C4  UNL d   1       2.793   2.328  -5.999  0.00  0.00    -0.005 A 
ATOM      6  C5  UNL d   1       4.134   1.932  -5.990  0.00  0.00    -0.074 A 
ATOM      7  C6  UNL d   1       4.510   0.480  -6.000  0.00  0.00     0.077 C 
ATOM      8  C7  UNL d   1       5.135   2.912  -5.988  0.00  0.00    -0.001 A 
ENDROOT
TORSDOF 0
ENDMDL
