MODEL 1
REMARK minimizedAffinity 7.78581524
REMARK minimizedRMSD -1
REMARK  0 active torsions:
REMARK  status: ('A' for Active; 'I' for Inactive)
ROOT
ATOM      1  C2' OXE d   1      -2.076   0.477   2.089  0.00  0.00     0.078 C 
ATOM      2  C1' OXE d   1      -2.921  -0.369  -0.450  0.00  0.00     0.078 C 
ATOM      3  C1  OXE d   1      -1.440  -0.377  -0.163  0.00  0.00    -0.078 A 
ATOM      4  C2  OXE d   1      -1.033   0.084   1.066  0.00  0.00    -0.078 A 
ATOM      5  C3  OXE d   1       0.318   0.047   1.403  0.00  0.00     0.003 A 
ATOM      6  C4  OXE d   1       1.277  -0.309   0.447  0.00  0.00    -0.002 A 
ATOM      7  C5  OXE d   1       0.886  -0.743  -0.824  0.00  0.00    -0.002 A 
ATOM      8  C6  OXE d   1      -0.469  -0.823  -1.130  0.00  0.00     0.003 A 
ENDROOT
TORSDOF 0
ENDMDL
