MODEL 1
REMARK minimizedAffinity 6.86457634
REMARK minimizedRMSD -1
REMARK  0 active torsions:
REMARK  status: ('A' for Active; 'I' for Inactive)
ROOT
ATOM      1  C2' OXE d   1      -0.971  -1.120   4.305  0.00  0.00     0.078 C 
ATOM      2  C1' OXE d   1      -3.652  -1.589   3.619  0.00  0.00     0.078 C 
ATOM      3  C1  OXE d   1      -2.876  -0.601   2.786  0.00  0.00    -0.078 A 
ATOM      4  C2  OXE d   1      -1.578  -0.343   3.157  0.00  0.00    -0.078 A 
ATOM      5  C3  OXE d   1      -0.800   0.520   2.390  0.00  0.00     0.003 A 
ATOM      6  C4  OXE d   1      -1.372   1.242   1.336  0.00  0.00    -0.002 A 
ATOM      7  C5  OXE d   1      -2.703   1.023   0.965  0.00  0.00    -0.002 A 
ATOM      8  C6  OXE d   1      -3.455   0.076   1.652  0.00  0.00     0.003 A 
ENDROOT
TORSDOF 0
ENDMDL
