MODEL 1
REMARK minimizedAffinity 13.2953348
REMARK minimizedRMSD -1
REMARK  0 active torsions:
REMARK  status: ('A' for Active; 'I' for Inactive)
ROOT
ATOM      1  C2' OXE d   1      -3.740  -0.788   3.732  0.00  0.00     0.078 C 
ATOM      2  C1' OXE d   1      -0.971  -1.016   4.135  0.00  0.00     0.078 C 
ATOM      3  C1  OXE d   1      -1.445  -0.391   2.847  0.00  0.00    -0.078 A 
ATOM      4  C2  OXE d   1      -2.802  -0.326   2.637  0.00  0.00    -0.078 A 
ATOM      5  C3  OXE d   1      -3.294   0.290   1.490  0.00  0.00     0.003 A 
ATOM      6  C4  OXE d   1      -2.419   0.706   0.479  0.00  0.00    -0.002 A 
ATOM      7  C5  OXE d   1      -1.035   0.613   0.655  0.00  0.00    -0.002 A 
ATOM      8  C6  OXE d   1      -0.532   0.107   1.848  0.00  0.00     0.003 A 
ENDROOT
TORSDOF 0
ENDMDL
