MODEL 1
REMARK minimizedAffinity 3.27573252
REMARK minimizedRMSD -1
REMARK  0 active torsions:
REMARK  status: ('A' for Active; 'I' for Inactive)
ROOT
ATOM      1  C2' OXE d   1      -1.183   1.951   2.074  0.00  0.00     0.078 C 
ATOM      2  C1' OXE d   1      -3.439   0.519   1.213  0.00  0.00     0.078 C 
ATOM      3  C1  OXE d   1      -2.589  -0.093   2.298  0.00  0.00    -0.078 A 
ATOM      4  C2  OXE d   1      -1.461   0.592   2.680  0.00  0.00    -0.078 A 
ATOM      5  C3  OXE d   1      -0.672   0.099   3.715  0.00  0.00     0.003 A 
ATOM      6  C4  OXE d   1      -0.930  -1.163   4.263  0.00  0.00    -0.002 A 
ATOM      7  C5  OXE d   1      -2.051  -1.897   3.860  0.00  0.00    -0.002 A 
ATOM      8  C6  OXE d   1      -2.913  -1.358   2.911  0.00  0.00     0.003 A 
ENDROOT
TORSDOF 0
ENDMDL
