MODEL 1
REMARK minimizedAffinity 2.93523812
REMARK minimizedRMSD -1
REMARK  0 active torsions:
REMARK  status: ('A' for Active; 'I' for Inactive)
ROOT
ATOM      1  C2' OXE d   1      -2.241   0.509   2.290  0.00  0.00     0.078 C 
ATOM      2  C1' OXE d   1      -2.929   0.200  -0.414  0.00  0.00     0.078 C 
ATOM      3  C1  OXE d   1      -1.466   0.152  -0.050  0.00  0.00    -0.078 A 
ATOM      4  C2  OXE d   1      -1.135   0.350   1.269  0.00  0.00    -0.078 A 
ATOM      5  C3  OXE d   1       0.195   0.261   1.667  0.00  0.00     0.003 A 
ATOM      6  C4  OXE d   1       1.213   0.124   0.715  0.00  0.00    -0.002 A 
ATOM      7  C5  OXE d   1       0.900  -0.040  -0.639  0.00  0.00    -0.002 A 
ATOM      8  C6  OXE d   1      -0.433  -0.071  -1.032  0.00  0.00     0.003 A 
ENDROOT
TORSDOF 0
ENDMDL
