MODEL 1
REMARK minimizedAffinity 2.80019021
REMARK minimizedRMSD -1
REMARK  0 active torsions:
REMARK  status: ('A' for Active; 'I' for Inactive)
ROOT
ATOM      1  C2' OXE d   1       0.325  -1.066   3.645  0.00  0.00     0.078 C 
ATOM      2  C1' OXE d   1       1.339  -0.955   1.030  0.00  0.00     0.078 C 
ATOM      3  C1  OXE d   1      -0.117  -0.618   1.235  0.00  0.00    -0.078 A 
ATOM      4  C2  OXE d   1      -0.615  -0.720   2.511  0.00  0.00    -0.078 A 
ATOM      5  C3  OXE d   1      -1.938  -0.367   2.765  0.00  0.00     0.003 A 
ATOM      6  C4  OXE d   1      -2.804  -0.058   1.709  0.00  0.00    -0.002 A 
ATOM      7  C5  OXE d   1      -2.326   0.013   0.396  0.00  0.00    -0.002 A 
ATOM      8  C6  OXE d   1      -0.978  -0.222   0.148  0.00  0.00     0.003 A 
ENDROOT
TORSDOF 0
ENDMDL
