MODEL 1
REMARK minimizedAffinity 4.09363699
REMARK minimizedRMSD -1
REMARK  0 active torsions:
REMARK  status: ('A' for Active; 'I' for Inactive)
ROOT
ATOM      1  C2' OXE d   1      -2.862  -0.434   3.389  0.00  0.00     0.078 C 
ATOM      2  C1' OXE d   1      -0.347  -1.217   4.359  0.00  0.00     0.078 C 
ATOM      3  C1  OXE d   1      -0.444  -0.795   2.914  0.00  0.00    -0.078 A 
ATOM      4  C2  OXE d   1      -1.687  -0.458   2.435  0.00  0.00    -0.078 A 
ATOM      5  C3  OXE d   1      -1.823  -0.009   1.125  0.00  0.00     0.003 A 
ATOM      6  C4  OXE d   1      -0.733  -0.045   0.247  0.00  0.00    -0.002 A 
ATOM      7  C5  OXE d   1       0.534  -0.423   0.703  0.00  0.00    -0.002 A 
ATOM      8  C6  OXE d   1       0.704  -0.759   2.041  0.00  0.00     0.003 A 
ENDROOT
TORSDOF 0
ENDMDL
