MODEL 1
REMARK minimizedAffinity -4.58819628
REMARK minimizedRMSD -1
REMARK  0 active torsions:
REMARK  status: ('A' for Active; 'I' for Inactive)
ROOT
ATOM      1  C2' OXE d   1      -2.061  -0.585   0.484  0.00  0.00     0.078 C 
ATOM      2  C1' OXE d   1       0.054   0.655  -0.883  0.00  0.00     0.078 C 
ATOM      3  C1  OXE d   1       0.140   0.574   0.621  0.00  0.00    -0.078 A 
ATOM      4  C2  OXE d   1      -0.922   0.007   1.285  0.00  0.00    -0.078 A 
ATOM      5  C3  OXE d   1      -0.869  -0.143   2.667  0.00  0.00     0.003 A 
ATOM      6  C4  OXE d   1       0.184   0.417   3.402  0.00  0.00    -0.002 A 
ATOM      7  C5  OXE d   1       1.256   1.033   2.748  0.00  0.00    -0.002 A 
ATOM      8  C6  OXE d   1       1.270   1.082   1.358  0.00  0.00     0.003 A 
ENDROOT
TORSDOF 0
ENDMDL
