MODEL 1
REMARK minimizedAffinity -2.0898757
REMARK minimizedRMSD -1
REMARK  0 active torsions:
REMARK  status: ('A' for Active; 'I' for Inactive)
ROOT
ATOM      1  C2' OXE d   1      -0.938   1.128  -0.968  0.00  0.00     0.078 C 
ATOM      2  C1' OXE d   1      -2.248  -1.170  -0.028  0.00  0.00     0.078 C 
ATOM      3  C1  OXE d   1      -1.651  -0.233   0.993  0.00  0.00    -0.078 A 
ATOM      4  C2  OXE d   1      -0.971   0.864   0.522  0.00  0.00    -0.078 A 
ATOM      5  C3  OXE d   1      -0.448   1.789   1.421  0.00  0.00     0.003 A 
ATOM      6  C4  OXE d   1      -0.475   1.533   2.797  0.00  0.00    -0.002 A 
ATOM      7  C5  OXE d   1      -1.127   0.400   3.296  0.00  0.00    -0.002 A 
ATOM      8  C6  OXE d   1      -1.756  -0.469   2.411  0.00  0.00     0.003 A 
ENDROOT
TORSDOF 0
ENDMDL
