MODEL 1
REMARK minimizedAffinity 4.29144049
REMARK minimizedRMSD -1
REMARK  0 active torsions:
REMARK  status: ('A' for Active; 'I' for Inactive)
ROOT
ATOM      1  C2' OXE d   1       1.775  -0.022   1.308  0.00  0.00     0.078 C 
ATOM      2  C1' OXE d   1       0.854  -1.071   3.744  0.00  0.00     0.078 C 
ATOM      3  C1  OXE d   1      -0.163  -0.462   2.811  0.00  0.00    -0.078 A 
ATOM      4  C2  OXE d   1       0.303   0.091   1.642  0.00  0.00    -0.078 A 
ATOM      5  C3  OXE d   1      -0.598   0.617   0.721  0.00  0.00     0.003 A 
ATOM      6  C4  OXE d   1      -1.957   0.727   1.042  0.00  0.00    -0.002 A 
ATOM      7  C5  OXE d   1      -2.447   0.206   2.244  0.00  0.00    -0.002 A 
ATOM      8  C6  OXE d   1      -1.571  -0.428   3.119  0.00  0.00     0.003 A 
ENDROOT
TORSDOF 0
ENDMDL
