MODEL 1
REMARK minimizedAffinity 3.96497846
REMARK minimizedRMSD -1
REMARK  0 active torsions:
REMARK  status: ('A' for Active; 'I' for Inactive)
ROOT
ATOM      1  C2' OXE d   1      -3.463  -1.034  -0.961  0.00  0.00     0.078 C 
ATOM      2  C1' OXE d   1      -3.145  -0.190   1.697  0.00  0.00     0.078 C 
ATOM      3  C1  OXE d   1      -1.909  -0.291   0.837  0.00  0.00    -0.078 A 
ATOM      4  C2  OXE d   1      -2.068  -0.750  -0.448  0.00  0.00    -0.078 A 
ATOM      5  C3  OXE d   1      -0.969  -0.810  -1.300  0.00  0.00     0.003 A 
ATOM      6  C4  OXE d   1       0.319  -0.555  -0.814  0.00  0.00    -0.002 A 
ATOM      7  C5  OXE d   1       0.508  -0.124   0.504  0.00  0.00    -0.002 A 
ATOM      8  C6  OXE d   1      -0.597   0.054   1.328  0.00  0.00     0.003 A 
ENDROOT
TORSDOF 0
ENDMDL
