MODEL 1
REMARK minimizedAffinity 9.48035431
REMARK minimizedRMSD -1
REMARK  0 active torsions:
REMARK  status: ('A' for Active; 'I' for Inactive)
ROOT
ATOM      1  C2' OXE d   1       0.384  -1.132  -1.131  0.00  0.00     0.078 C 
ATOM      2  C1' OXE d   1       1.220  -0.016   1.306  0.00  0.00     0.078 C 
ATOM      3  C1  OXE d   1      -0.255   0.008   0.990  0.00  0.00    -0.078 A 
ATOM      4  C2  OXE d   1      -0.650  -0.498  -0.225  0.00  0.00    -0.078 A 
ATOM      5  C3  OXE d   1      -2.004  -0.550  -0.543  0.00  0.00     0.003 A 
ATOM      6  C4  OXE d   1      -2.953   0.048   0.296  0.00  0.00    -0.002 A 
ATOM      7  C5  OXE d   1      -2.567   0.604   1.520  0.00  0.00    -0.002 A 
ATOM      8  C6  OXE d   1      -1.231   0.554   1.901  0.00  0.00     0.003 A 
ENDROOT
TORSDOF 0
ENDMDL
