MODEL 1
REMARK minimizedAffinity 2.9895525
REMARK minimizedRMSD -1
REMARK  0 active torsions:
REMARK  status: ('A' for Active; 'I' for Inactive)
ROOT
ATOM      1  C2' OXE d   1      -1.672   1.085   0.760  0.00  0.00     0.078 C 
ATOM      2  C1' OXE d   1       0.999   0.286   1.085  0.00  0.00     0.078 C 
ATOM      3  C1  OXE d   1       0.043   0.022   2.220  0.00  0.00    -0.078 A 
ATOM      4  C2  OXE d   1      -1.252   0.458   2.071  0.00  0.00    -0.078 A 
ATOM      5  C3  OXE d   1      -2.188   0.191   3.066  0.00  0.00     0.003 A 
ATOM      6  C4  OXE d   1      -1.788  -0.380   4.281  0.00  0.00    -0.002 A 
ATOM      7  C5  OXE d   1      -0.466  -0.796   4.469  0.00  0.00    -0.002 A 
ATOM      8  C6  OXE d   1       0.451  -0.641   3.434  0.00  0.00     0.003 A 
ENDROOT
TORSDOF 0
ENDMDL
