MODEL 1
REMARK minimizedAffinity 8.63665676
REMARK minimizedRMSD -1
REMARK  0 active torsions:
REMARK  status: ('A' for Active; 'I' for Inactive)
ROOT
ATOM      1  C2' OXE d   1      -3.095  -0.634  -0.498  0.00  0.00     0.078 C 
ATOM      2  C1' OXE d   1      -2.593   0.573   1.986  0.00  0.00     0.078 C 
ATOM      3  C1  OXE d   1      -1.407   0.136   1.164  0.00  0.00    -0.078 A 
ATOM      4  C2  OXE d   1      -1.663  -0.496  -0.029  0.00  0.00    -0.078 A 
ATOM      5  C3  OXE d   1      -0.604  -0.871  -0.852  0.00  0.00     0.003 A 
ATOM      6  C4  OXE d   1       0.717  -0.750  -0.406  0.00  0.00    -0.002 A 
ATOM      7  C5  OXE d   1       0.999  -0.145   0.824  0.00  0.00    -0.002 A 
ATOM      8  C6  OXE d   1      -0.048   0.341   1.600  0.00  0.00     0.003 A 
ENDROOT
TORSDOF 0
ENDMDL
