MODEL 1
REMARK minimizedAffinity -3.26168776
REMARK minimizedRMSD -1
REMARK  0 active torsions:
REMARK  status: ('A' for Active; 'I' for Inactive)
ROOT
ATOM      1  C   UNL d   1      -4.628   3.773   5.570  0.00  0.00     0.023 A 
ATOM      2  C1  UNL d   1      -3.601   3.755   4.626  0.00  0.00     0.003 A 
ATOM      3  C2  UNL d   1      -3.771   4.392   3.395  0.00  0.00     0.048 A 
ATOM      4  C3  UNL d   1      -4.969   5.047   3.115  0.00  0.00     0.023 A 
ATOM      5  C4  UNL d   1      -5.999   5.069   4.057  0.00  0.00     0.048 A 
ATOM      6  C5  UNL d   1      -5.825   4.429   5.285  0.00  0.00     0.003 A 
ATOM      7  I   UNL d   1      -5.224   5.996   1.284  0.00  0.00    -0.146 I 
ENDROOT
TORSDOF 0
ENDMDL
