MODEL 1
REMARK minimizedAffinity -3.36492491
REMARK minimizedRMSD -1
REMARK  0 active torsions:
REMARK  status: ('A' for Active; 'I' for Inactive)
ROOT
ATOM      1  C   UNL d   1      -4.723   5.674   2.637  0.00  0.00     0.023 A 
ATOM      2  C1  UNL d   1      -5.629   6.000   3.646  0.00  0.00     0.003 A 
ATOM      3  C2  UNL d   1      -5.997   5.040   4.592  0.00  0.00     0.048 A 
ATOM      4  C3  UNL d   1      -5.454   3.758   4.523  0.00  0.00     0.023 A 
ATOM      5  C4  UNL d   1      -4.547   3.428   3.515  0.00  0.00     0.048 A 
ATOM      6  C5  UNL d   1      -4.182   4.390   2.571  0.00  0.00     0.003 A 
ATOM      7  I   UNL d   1      -6.000   2.328   5.929  0.00  0.00    -0.146 I 
ENDROOT
TORSDOF 0
ENDMDL
