MODEL 1
REMARK minimizedAffinity 5.55188656
REMARK minimizedRMSD -1
REMARK  0 active torsions:
REMARK  status: ('A' for Active; 'I' for Inactive)
ROOT
ATOM      1  C   UNL d   1      -4.500   1.890   1.159  0.00  0.00     0.023 A 
ATOM      2  C1  UNL d   1      -4.137   2.165   2.477  0.00  0.00     0.003 A 
ATOM      3  C2  UNL d   1      -4.566   3.344   3.089  0.00  0.00     0.048 A 
ATOM      4  C3  UNL d   1      -5.359   4.244   2.378  0.00  0.00     0.023 A 
ATOM      5  C4  UNL d   1      -5.726   3.972   1.059  0.00  0.00     0.048 A 
ATOM      6  C5  UNL d   1      -5.293   2.792   0.450  0.00  0.00     0.003 A 
ATOM      7  I   UNL d   1      -5.999   6.000   3.287  0.00  0.00    -0.146 I 
ENDROOT
TORSDOF 0
ENDMDL
