MODEL 1
REMARK minimizedAffinity -1.56213188
REMARK minimizedRMSD -1
REMARK  0 active torsions:
REMARK  status: ('A' for Active; 'I' for Inactive)
ROOT
ATOM      1  C   UNL d   1      -4.489   3.110   4.757  0.00  0.00     0.023 A 
ATOM      2  C1  UNL d   1      -4.872   2.552   3.538  0.00  0.00     0.003 A 
ATOM      3  C2  UNL d   1      -5.222   3.380   2.469  0.00  0.00     0.048 A 
ATOM      4  C3  UNL d   1      -5.184   4.765   2.626  0.00  0.00     0.023 A 
ATOM      5  C4  UNL d   1      -4.801   5.328   3.844  0.00  0.00     0.048 A 
ATOM      6  C5  UNL d   1      -4.453   4.496   4.910  0.00  0.00     0.003 A 
ATOM      7  I   UNL d   1      -5.704   5.999   1.036  0.00  0.00    -0.146 I 
ENDROOT
TORSDOF 0
ENDMDL
