MODEL 1
REMARK minimizedAffinity -2.6223948
REMARK minimizedRMSD -1
REMARK  0 active torsions:
REMARK  status: ('A' for Active; 'I' for Inactive)
ROOT
ATOM      1  C   UNL d   1      -5.630   2.792   5.833  0.00  0.00     0.023 A 
ATOM      2  C1  UNL d   1      -5.996   4.128   6.000  0.00  0.00     0.003 A 
ATOM      3  C2  UNL d   1      -5.992   4.996   4.906  0.00  0.00     0.048 A 
ATOM      4  C3  UNL d   1      -5.622   4.522   3.648  0.00  0.00     0.023 A 
ATOM      5  C4  UNL d   1      -5.255   3.186   3.477  0.00  0.00     0.048 A 
ATOM      6  C5  UNL d   1      -5.259   2.322   4.573  0.00  0.00     0.003 A 
ATOM      7  I   UNL d   1      -5.616   5.812   2.019  0.00  0.00    -0.146 I 
ENDROOT
TORSDOF 0
ENDMDL
