MODEL 1
REMARK minimizedAffinity -2.89146924
REMARK minimizedRMSD -1
REMARK  0 active torsions:
REMARK  status: ('A' for Active; 'I' for Inactive)
ROOT
ATOM      1  C   UNL d   1      -4.505   5.277   1.327  0.00  0.00     0.023 A 
ATOM      2  C1  UNL d   1      -5.627   5.957   1.801  0.00  0.00     0.003 A 
ATOM      3  C2  UNL d   1      -5.999   5.843   3.142  0.00  0.00     0.048 A 
ATOM      4  C3  UNL d   1      -5.245   5.047   4.004  0.00  0.00     0.023 A 
ATOM      5  C4  UNL d   1      -4.122   4.364   3.534  0.00  0.00     0.048 A 
ATOM      6  C5  UNL d   1      -3.754   4.481   2.192  0.00  0.00     0.003 A 
ATOM      7  I   UNL d   1      -5.798   4.874   6.000  0.00  0.00    -0.146 I 
ENDROOT
TORSDOF 0
ENDMDL
