MODEL 1
REMARK minimizedAffinity -2.6680429
REMARK minimizedRMSD -1
REMARK  0 active torsions:
REMARK  status: ('A' for Active; 'I' for Inactive)
ROOT
ATOM      1  C   UNL d   1      -4.148   4.124   1.898  0.00  0.00     0.023 A 
ATOM      2  C1  UNL d   1      -4.660   5.422   1.904  0.00  0.00     0.003 A 
ATOM      3  C2  UNL d   1      -5.184   5.961   3.080  0.00  0.00     0.048 A 
ATOM      4  C3  UNL d   1      -5.192   5.198   4.248  0.00  0.00     0.023 A 
ATOM      5  C4  UNL d   1      -4.679   3.900   4.246  0.00  0.00     0.048 A 
ATOM      6  C5  UNL d   1      -4.157   3.364   3.067  0.00  0.00     0.003 A 
ATOM      7  I   UNL d   1      -5.971   6.000   6.000  0.00  0.00    -0.146 I 
ENDROOT
TORSDOF 0
ENDMDL
