MODEL 1
REMARK minimizedAffinity -2.32007289
REMARK minimizedRMSD -1
REMARK  0 active torsions:
REMARK  status: ('A' for Active; 'I' for Inactive)
ROOT
ATOM      1  C   UNL d   1      -5.698   4.920   1.383  0.00  0.00     0.023 A 
ATOM      2  C1  UNL d   1      -6.000   3.831   2.201  0.00  0.00     0.003 A 
ATOM      3  C2  UNL d   1      -5.561   3.810   3.527  0.00  0.00     0.048 A 
ATOM      4  C3  UNL d   1      -4.821   4.881   4.027  0.00  0.00     0.023 A 
ATOM      5  C4  UNL d   1      -4.518   5.973   3.213  0.00  0.00     0.048 A 
ATOM      6  C5  UNL d   1      -4.958   5.989   1.888  0.00  0.00     0.003 A 
ATOM      7  I   UNL d   1      -4.167   4.851   6.000  0.00  0.00    -0.146 I 
ENDROOT
TORSDOF 0
ENDMDL
