MODEL 1
REMARK minimizedAffinity -1.85076797
REMARK minimizedRMSD -1
REMARK  0 active torsions:
REMARK  status: ('A' for Active; 'I' for Inactive)
ROOT
ATOM      1  C   UNL d   1      -5.416   4.888   5.982  0.00  0.00     0.023 A 
ATOM      2  C1  UNL d   1      -5.971   5.933   5.242  0.00  0.00     0.003 A 
ATOM      3  C2  UNL d   1      -5.765   6.000   3.863  0.00  0.00     0.048 A 
ATOM      4  C3  UNL d   1      -5.004   5.018   3.229  0.00  0.00     0.023 A 
ATOM      5  C4  UNL d   1      -4.448   3.970   3.965  0.00  0.00     0.048 A 
ATOM      6  C5  UNL d   1      -4.656   3.908   5.344  0.00  0.00     0.003 A 
ATOM      7  I   UNL d   1      -4.696   5.115   1.176  0.00  0.00    -0.146 I 
ENDROOT
TORSDOF 0
ENDMDL
