MODEL 1
REMARK minimizedAffinity -3.4892602
REMARK minimizedRMSD -1
REMARK  0 active torsions:
REMARK  status: ('A' for Active; 'I' for Inactive)
ROOT
ATOM      1  C   UNL d   1      -4.973   5.546   2.606  0.00  0.00     0.023 A 
ATOM      2  C1  UNL d   1      -5.714   5.896   3.735  0.00  0.00     0.003 A 
ATOM      3  C2  UNL d   1      -5.997   4.937   4.710  0.00  0.00     0.048 A 
ATOM      4  C3  UNL d   1      -5.536   3.631   4.550  0.00  0.00     0.023 A 
ATOM      5  C4  UNL d   1      -4.794   3.277   3.422  0.00  0.00     0.048 A 
ATOM      6  C5  UNL d   1      -4.514   4.239   2.450  0.00  0.00     0.003 A 
ATOM      7  I   UNL d   1      -5.956   2.202   6.000  0.00  0.00    -0.146 I 
ENDROOT
TORSDOF 0
ENDMDL
