MODEL 1
REMARK minimizedAffinity -2.71923041
REMARK minimizedRMSD -1
REMARK  0 active torsions:
REMARK  status: ('A' for Active; 'I' for Inactive)
ROOT
ATOM      1  C   UNL d   1      -5.790   2.762   5.785  0.00  0.00     0.023 A 
ATOM      2  C1  UNL d   1      -5.941   4.143   5.916  0.00  0.00     0.003 A 
ATOM      3  C2  UNL d   1      -5.999   4.951   4.779  0.00  0.00     0.048 A 
ATOM      4  C3  UNL d   1      -5.907   4.372   3.513  0.00  0.00     0.023 A 
ATOM      5  C4  UNL d   1      -5.756   2.991   3.377  0.00  0.00     0.048 A 
ATOM      6  C5  UNL d   1      -5.697   2.187   4.517  0.00  0.00     0.003 A 
ATOM      7  I   UNL d   1      -5.993   5.573   1.819  0.00  0.00    -0.146 I 
ENDROOT
TORSDOF 0
ENDMDL
