MODEL 1
REMARK minimizedAffinity -2.77447152
REMARK minimizedRMSD -1
REMARK  0 active torsions:
REMARK  status: ('A' for Active; 'I' for Inactive)
ROOT
ATOM      1  C   UNL d   1      -4.707   2.948   5.588  0.00  0.00     0.023 A 
ATOM      2  C1  UNL d   1      -3.757   2.985   4.567  0.00  0.00     0.003 A 
ATOM      3  C2  UNL d   1      -3.926   3.854   3.487  0.00  0.00     0.048 A 
ATOM      4  C3  UNL d   1      -5.046   4.683   3.434  0.00  0.00     0.023 A 
ATOM      5  C4  UNL d   1      -5.998   4.649   4.454  0.00  0.00     0.048 A 
ATOM      6  C5  UNL d   1      -5.826   3.778   5.532  0.00  0.00     0.003 A 
ATOM      7  I   UNL d   1      -5.299   5.977   1.827  0.00  0.00    -0.146 I 
ENDROOT
TORSDOF 0
ENDMDL
