MODEL 1
REMARK minimizedAffinity -3.24312639
REMARK minimizedRMSD -1
REMARK  0 active torsions:
REMARK  status: ('A' for Active; 'I' for Inactive)
ROOT
ATOM      1  C   UNL d   1      -4.853   5.251   2.188  0.00  0.00     0.023 A 
ATOM      2  C1  UNL d   1      -4.126   5.414   3.368  0.00  0.00     0.003 A 
ATOM      3  C2  UNL d   1      -4.335   4.549   4.443  0.00  0.00     0.048 A 
ATOM      4  C3  UNL d   1      -5.271   3.522   4.333  0.00  0.00     0.023 A 
ATOM      5  C4  UNL d   1      -6.000   3.354   3.154  0.00  0.00     0.048 A 
ATOM      6  C5  UNL d   1      -5.789   4.222   2.082  0.00  0.00     0.003 A 
ATOM      7  I   UNL d   1      -5.583   2.232   5.933  0.00  0.00    -0.146 I 
ENDROOT
TORSDOF 0
ENDMDL
