MODEL 1
REMARK minimizedAffinity 3.54452276
REMARK minimizedRMSD -1
REMARK  0 active torsions:
REMARK  status: ('A' for Active; 'I' for Inactive)
ROOT
ATOM      1  C1  BNZ d   1      -0.347   2.136   2.626  0.00  0.00     0.000 A 
ATOM      2  C2  BNZ d   1      -0.810   2.736   1.485  0.00  0.00     0.000 A 
ATOM      3  C3  BNZ d   1      -0.077   3.702   0.856  0.00  0.00     0.000 A 
ATOM      4  C4  BNZ d   1       1.098   4.096   1.389  0.00  0.00     0.000 A 
ATOM      5  C5  BNZ d   1       1.574   3.507   2.543  0.00  0.00     0.000 A 
ATOM      6  C6  BNZ d   1       0.851   2.507   3.153  0.00  0.00     0.000 A 
ENDROOT
TORSDOF 0
ENDMDL
