MODEL 1
REMARK minimizedAffinity 2.4384222
REMARK minimizedRMSD -1
REMARK  0 active torsions:
REMARK  status: ('A' for Active; 'I' for Inactive)
ROOT
ATOM      1  C1  BNZ d   1      -2.052  -1.051  -1.937  0.00  0.00     0.000 A 
ATOM      2  C2  BNZ d   1      -1.181  -2.053  -2.270  0.00  0.00     0.000 A 
ATOM      3  C3  BNZ d   1       0.171  -1.856  -2.207  0.00  0.00     0.000 A 
ATOM      4  C4  BNZ d   1       0.648  -0.646  -1.850  0.00  0.00     0.000 A 
ATOM      5  C5  BNZ d   1      -0.218   0.378  -1.521  0.00  0.00     0.000 A 
ATOM      6  C6  BNZ d   1      -1.577   0.164  -1.548  0.00  0.00     0.000 A 
ENDROOT
TORSDOF 0
ENDMDL
