MODEL 1
REMARK minimizedAffinity 2.92849183
REMARK minimizedRMSD -1
REMARK  0 active torsions:
REMARK  status: ('A' for Active; 'I' for Inactive)
ROOT
ATOM      1  C1  BNZ d   1      -3.514  -0.762  -2.587  0.00  0.00     0.000 A 
ATOM      2  C2  BNZ d   1      -4.024   0.486  -2.829  0.00  0.00     0.000 A 
ATOM      3  C3  BNZ d   1      -4.146   1.400  -1.820  0.00  0.00     0.000 A 
ATOM      4  C4  BNZ d   1      -3.796   1.052  -0.564  0.00  0.00     0.000 A 
ATOM      5  C5  BNZ d   1      -3.289  -0.205  -0.303  0.00  0.00     0.000 A 
ATOM      6  C6  BNZ d   1      -3.131  -1.109  -1.328  0.00  0.00     0.000 A 
ENDROOT
TORSDOF 0
ENDMDL
