MODEL 1
REMARK minimizedAffinity 5.17120838
REMARK minimizedRMSD -1
REMARK  0 active torsions:
REMARK  status: ('A' for Active; 'I' for Inactive)
ROOT
ATOM      1  C1  BNZ d   1      -0.359   3.427   0.783  0.00  0.00     0.000 A 
ATOM      2  C2  BNZ d   1      -0.957   2.347   1.377  0.00  0.00     0.000 A 
ATOM      3  C3  BNZ d   1      -0.434   1.795   2.513  0.00  0.00     0.000 A 
ATOM      4  C4  BNZ d   1       0.705   2.296   3.030  0.00  0.00     0.000 A 
ATOM      5  C5  BNZ d   1       1.325   3.379   2.438  0.00  0.00     0.000 A 
ATOM      6  C6  BNZ d   1       0.775   3.957   1.317  0.00  0.00     0.000 A 
ENDROOT
TORSDOF 0
ENDMDL
