MODEL 1
REMARK minimizedAffinity -0.0532078259
REMARK minimizedRMSD -1
REMARK  0 active torsions:
REMARK  status: ('A' for Active; 'I' for Inactive)
ROOT
ATOM      1  C1  BNZ d   1      -5.027   0.704  -1.021  0.00  0.00     0.000 A 
ATOM      2  C2  BNZ d   1      -5.499   0.990   0.232  0.00  0.00     0.000 A 
ATOM      3  C3  BNZ d   1      -4.878   0.494   1.344  0.00  0.00     0.000 A 
ATOM      4  C4  BNZ d   1      -3.812  -0.319   1.201  0.00  0.00     0.000 A 
ATOM      5  C5  BNZ d   1      -3.330  -0.625  -0.056  0.00  0.00     0.000 A 
ATOM      6  C6  BNZ d   1      -3.933  -0.092  -1.172  0.00  0.00     0.000 A 
ENDROOT
TORSDOF 0
ENDMDL
