MODEL 1
REMARK minimizedAffinity 7.00927591
REMARK minimizedRMSD -1
REMARK  0 active torsions:
REMARK  status: ('A' for Active; 'I' for Inactive)
ROOT
ATOM      1  C1  BNZ d   1       0.407  -1.501  -3.244  0.00  0.00     0.000 A 
ATOM      2  C2  BNZ d   1       0.024  -1.087  -1.996  0.00  0.00     0.000 A 
ATOM      3  C3  BNZ d   1      -1.299  -0.965  -1.674  0.00  0.00     0.000 A 
ATOM      4  C4  BNZ d   1      -2.235  -1.219  -2.611  0.00  0.00     0.000 A 
ATOM      5  C5  BNZ d   1      -1.864  -1.628  -3.877  0.00  0.00     0.000 A 
ATOM      6  C6  BNZ d   1      -0.533  -1.787  -4.185  0.00  0.00     0.000 A 
ENDROOT
TORSDOF 0
ENDMDL
