MODEL 1
REMARK minimizedAffinity 4.21238184
REMARK minimizedRMSD -1
REMARK  0 active torsions:
REMARK  status: ('A' for Active; 'I' for Inactive)
ROOT
ATOM      1  C1  BNZ d   1       0.043  -1.069  -2.095  0.00  0.00     0.000 A 
ATOM      2  C2  BNZ d   1      -1.031  -0.842  -1.276  0.00  0.00     0.000 A 
ATOM      3  C3  BNZ d   1      -2.306  -1.064  -1.717  0.00  0.00     0.000 A 
ATOM      4  C4  BNZ d   1      -2.507  -1.472  -2.986  0.00  0.00     0.000 A 
ATOM      5  C5  BNZ d   1      -1.435  -1.696  -3.826  0.00  0.00     0.000 A 
ATOM      6  C6  BNZ d   1      -0.151  -1.509  -3.367  0.00  0.00     0.000 A 
ENDROOT
TORSDOF 0
ENDMDL
