MODEL 1
REMARK minimizedAffinity 2.479146
REMARK minimizedRMSD -1
REMARK  0 active torsions:
REMARK  status: ('A' for Active; 'I' for Inactive)
ROOT
ATOM      1  C1  BNZ d   1      -0.955   2.279  -0.342  0.00  0.00     0.000 A 
ATOM      2  C2  BNZ d   1      -1.300   1.790   0.890  0.00  0.00     0.000 A 
ATOM      3  C3  BNZ d   1      -0.519   2.035   1.984  0.00  0.00     0.000 A 
ATOM      4  C4  BNZ d   1       0.626   2.733   1.839  0.00  0.00     0.000 A 
ATOM      5  C5  BNZ d   1       0.993   3.225   0.602  0.00  0.00     0.000 A 
ATOM      6  C6  BNZ d   1       0.184   3.010  -0.490  0.00  0.00     0.000 A 
ENDROOT
TORSDOF 0
ENDMDL
