MODEL 1
REMARK minimizedAffinity 5.45665264
REMARK minimizedRMSD -1
REMARK  0 active torsions:
REMARK  status: ('A' for Active; 'I' for Inactive)
ROOT
ATOM      1  C1  BNZ d   1      -0.817   3.880  -0.795  0.00  0.00     0.000 A 
ATOM      2  C2  BNZ d   1      -0.492   4.598   0.325  0.00  0.00     0.000 A 
ATOM      3  C3  BNZ d   1      -0.431   3.995   1.550  0.00  0.00     0.000 A 
ATOM      4  C4  BNZ d   1      -0.734   2.685   1.660  0.00  0.00     0.000 A 
ATOM      5  C5  BNZ d   1      -1.072   1.949   0.541  0.00  0.00     0.000 A 
ATOM      6  C6  BNZ d   1      -1.095   2.551  -0.696  0.00  0.00     0.000 A 
ENDROOT
TORSDOF 0
ENDMDL
