MODEL 1
REMARK minimizedAffinity 4.65237427
REMARK minimizedRMSD -1
REMARK  0 active torsions:
REMARK  status: ('A' for Active; 'I' for Inactive)
ROOT
ATOM      1  C1  BNZ d   1      -0.574   1.395   0.098  0.00  0.00     0.000 A 
ATOM      2  C2  BNZ d   1      -0.543   2.071  -1.093  0.00  0.00     0.000 A 
ATOM      3  C3  BNZ d   1      -0.629   3.435  -1.125  0.00  0.00     0.000 A 
ATOM      4  C4  BNZ d   1      -0.787   4.117   0.028  0.00  0.00     0.000 A 
ATOM      5  C5  BNZ d   1      -0.829   3.448   1.235  0.00  0.00     0.000 A 
ATOM      6  C6  BNZ d   1      -0.703   2.079   1.267  0.00  0.00     0.000 A 
ENDROOT
TORSDOF 0
ENDMDL
