MODEL 1
REMARK minimizedAffinity 6.20383024
REMARK minimizedRMSD -1
REMARK  0 active torsions:
REMARK  status: ('A' for Active; 'I' for Inactive)
ROOT
ATOM      1  C1  BNZ d   1      -3.387   1.080  -1.234  0.00  0.00     0.000 A 
ATOM      2  C2  BNZ d   1      -2.503   0.234  -1.850  0.00  0.00     0.000 A 
ATOM      3  C3  BNZ d   1      -2.470  -1.095  -1.533  0.00  0.00     0.000 A 
ATOM      4  C4  BNZ d   1      -3.292  -1.568  -0.574  0.00  0.00     0.000 A 
ATOM      5  C5  BNZ d   1      -4.182  -0.726   0.062  0.00  0.00     0.000 A 
ATOM      6  C6  BNZ d   1      -4.240   0.603  -0.287  0.00  0.00     0.000 A 
ENDROOT
TORSDOF 0
ENDMDL
