MODEL 1
REMARK minimizedAffinity 3.15884209
REMARK minimizedRMSD -1
REMARK  0 active torsions:
REMARK  status: ('A' for Active; 'I' for Inactive)
ROOT
ATOM      1  C1  BNZ d   1      -0.285   2.578   2.973  0.00  0.00     0.000 A 
ATOM      2  C2  BNZ d   1      -0.549   3.245   1.806  0.00  0.00     0.000 A 
ATOM      3  C3  BNZ d   1       0.411   4.011   1.206  0.00  0.00     0.000 A 
ATOM      4  C4  BNZ d   1       1.618   4.140   1.792  0.00  0.00     0.000 A 
ATOM      5  C5  BNZ d   1       1.897   3.481   2.972  0.00  0.00     0.000 A 
ATOM      6  C6  BNZ d   1       0.941   2.680   3.554  0.00  0.00     0.000 A 
ENDROOT
TORSDOF 0
ENDMDL
