MODEL 1
REMARK minimizedAffinity -1.87223351
REMARK minimizedRMSD -1
REMARK  0 active torsions:
REMARK  status: ('A' for Active; 'I' for Inactive)
ROOT
ATOM      1  C1  BNZ d   1      -0.768   1.101  -1.155  0.00  0.00     0.000 A 
ATOM      2  C2  BNZ d   1      -2.124   1.290  -1.114  0.00  0.00     0.000 A 
ATOM      3  C3  BNZ d   1      -2.979   0.223  -1.104  0.00  0.00     0.000 A 
ATOM      4  C4  BNZ d   1      -2.480  -1.028  -1.175  0.00  0.00     0.000 A 
ATOM      5  C5  BNZ d   1      -1.116  -1.234  -1.226  0.00  0.00     0.000 A 
ATOM      6  C6  BNZ d   1      -0.257  -0.159  -1.197  0.00  0.00     0.000 A 
ENDROOT
TORSDOF 0
ENDMDL
