MODEL 1
REMARK minimizedAffinity 4.93100834
REMARK minimizedRMSD -1
REMARK  0 active torsions:
REMARK  status: ('A' for Active; 'I' for Inactive)
ROOT
ATOM      1  C1  BNZ d   1      -5.960   0.238   4.856  0.00  0.00     0.000 A 
ATOM      2  C2  BNZ d   1      -5.985  -0.517   5.999  0.00  0.00     0.000 A 
ATOM      3  C3  BNZ d   1      -5.984  -1.882   5.936  0.00  0.00     0.000 A 
ATOM      4  C4  BNZ d   1      -5.998  -2.491   4.732  0.00  0.00     0.000 A 
ATOM      5  C5  BNZ d   1      -5.982  -1.744   3.571  0.00  0.00     0.000 A 
ATOM      6  C6  BNZ d   1      -5.944  -0.370   3.639  0.00  0.00     0.000 A 
ENDROOT
TORSDOF 0
ENDMDL
