MODEL 1
REMARK minimizedAffinity 4.0975976
REMARK minimizedRMSD -1
REMARK  0 active torsions:
REMARK  status: ('A' for Active; 'I' for Inactive)
ROOT
ATOM      1  C1  BNZ d   1       3.762  -1.694  -0.490  0.00  0.00     0.000 A 
ATOM      2  C2  BNZ d   1       4.775  -1.130  -1.219  0.00  0.00     0.000 A 
ATOM      3  C3  BNZ d   1       5.745  -1.907  -1.787  0.00  0.00     0.000 A 
ATOM      4  C4  BNZ d   1       5.724  -3.242  -1.591  0.00  0.00     0.000 A 
ATOM      5  C5  BNZ d   1       4.715  -3.824  -0.851  0.00  0.00     0.000 A 
ATOM      6  C6  BNZ d   1       3.718  -3.042  -0.313  0.00  0.00     0.000 A 
ENDROOT
TORSDOF 0
ENDMDL
