MODEL 1
REMARK minimizedAffinity 15.7530413
REMARK minimizedRMSD -1
REMARK  0 active torsions:
REMARK  status: ('A' for Active; 'I' for Inactive)
ROOT
ATOM      1  C   UNL d   1      -2.363   2.930  -3.592  0.00  0.00     0.077 C 
ATOM      2  C1  UNL d   1      -1.273   2.944  -2.562  0.00  0.00    -0.074 A 
ATOM      3  C2  UNL d   1      -0.057   3.588  -2.811  0.00  0.00    -0.005 A 
ATOM      4  C3  UNL d   1       0.944   3.601  -1.840  0.00  0.00     0.006 A 
ATOM      5  C4  UNL d   1       0.740   2.971  -0.612  0.00  0.00    -0.005 A 
ATOM      6  C5  UNL d   1      -0.470   2.322  -0.345  0.00  0.00    -0.074 A 
ATOM      7  C6  UNL d   1      -0.709   1.648   0.974  0.00  0.00     0.077 C 
ATOM      8  C7  UNL d   1      -1.473   2.320  -1.323  0.00  0.00    -0.001 A 
ENDROOT
TORSDOF 0
ENDMDL
