MODEL 1
REMARK minimizedAffinity 20.0536976
REMARK minimizedRMSD -1
REMARK  0 active torsions:
REMARK  status: ('A' for Active; 'I' for Inactive)
ROOT
ATOM      1  C   UNL d   1       1.286  -4.123  -1.910  0.00  0.00     0.077 C 
ATOM      2  C1  UNL d   1       1.494  -3.421  -0.600  0.00  0.00    -0.074 A 
ATOM      3  C2  UNL d   1       2.168  -2.197  -0.540  0.00  0.00    -0.005 A 
ATOM      4  C3  UNL d   1       2.345  -1.552   0.684  0.00  0.00     0.006 A 
ATOM      5  C4  UNL d   1       1.850  -2.122   1.857  0.00  0.00    -0.005 A 
ATOM      6  C5  UNL d   1       1.172  -3.345   1.816  0.00  0.00    -0.074 A 
ATOM      7  C6  UNL d   1       0.625  -3.966   3.067  0.00  0.00     0.077 C 
ATOM      8  C7  UNL d   1       0.992  -3.984   0.582  0.00  0.00    -0.001 A 
ENDROOT
TORSDOF 0
ENDMDL
