MODEL 1
REMARK minimizedAffinity 19.1194153
REMARK minimizedRMSD -1
REMARK  0 active torsions:
REMARK  status: ('A' for Active; 'I' for Inactive)
ROOT
ATOM      1  C   UNL d   1       2.894  -2.633  -6.000  0.00  0.00     0.077 C 
ATOM      2  C1  UNL d   1       2.279  -3.801  -5.288  0.00  0.00    -0.074 A 
ATOM      3  C2  UNL d   1       1.799  -4.905  -6.000  0.00  0.00    -0.005 A 
ATOM      4  C3  UNL d   1       1.239  -5.989  -5.323  0.00  0.00     0.006 A 
ATOM      5  C4  UNL d   1       1.151  -5.978  -3.931  0.00  0.00    -0.005 A 
ATOM      6  C5  UNL d   1       1.626  -4.883  -3.202  0.00  0.00    -0.074 A 
ATOM      7  C6  UNL d   1       1.549  -4.861  -1.704  0.00  0.00     0.077 C 
ATOM      8  C7  UNL d   1       2.195  -3.802  -3.888  0.00  0.00    -0.001 A 
ENDROOT
TORSDOF 0
ENDMDL
