MODEL 1
REMARK minimizedAffinity 14.1094332
REMARK minimizedRMSD -1
REMARK  0 active torsions:
REMARK  status: ('A' for Active; 'I' for Inactive)
ROOT
ATOM      1  C   UNL d   1      -0.269   2.049   0.609  0.00  0.00     0.077 C 
ATOM      2  C1  UNL d   1      -0.366   2.700  -0.739  0.00  0.00    -0.074 A 
ATOM      3  C2  UNL d   1      -1.498   2.525  -1.542  0.00  0.00    -0.005 A 
ATOM      4  C3  UNL d   1      -1.578   3.144  -2.789  0.00  0.00     0.006 A 
ATOM      5  C4  UNL d   1      -0.530   3.943  -3.246  0.00  0.00    -0.005 A 
ATOM      6  C5  UNL d   1       0.610   4.131  -2.456  0.00  0.00    -0.074 A 
ATOM      7  C6  UNL d   1       1.742   4.994  -2.928  0.00  0.00     0.077 C 
ATOM      8  C7  UNL d   1       0.680   3.511  -1.201  0.00  0.00    -0.001 A 
ENDROOT
TORSDOF 0
ENDMDL
