MODEL 1
REMARK minimizedAffinity 13.5257215
REMARK minimizedRMSD -1
REMARK  0 active torsions:
REMARK  status: ('A' for Active; 'I' for Inactive)
ROOT
ATOM      1  C   UNL d   1       0.290   2.311  -0.044  0.00  0.00     0.077 C 
ATOM      2  C1  UNL d   1       0.018   2.946  -1.375  0.00  0.00    -0.074 A 
ATOM      3  C2  UNL d   1      -1.183   2.711  -2.052  0.00  0.00    -0.005 A 
ATOM      4  C3  UNL d   1      -1.426   3.316  -3.285  0.00  0.00     0.006 A 
ATOM      5  C4  UNL d   1      -0.471   4.161  -3.853  0.00  0.00    -0.005 A 
ATOM      6  C5  UNL d   1       0.736   4.408  -3.191  0.00  0.00    -0.074 A 
ATOM      7  C6  UNL d   1       1.768   5.320  -3.782  0.00  0.00     0.077 C 
ATOM      8  C7  UNL d   1       0.969   3.801  -1.949  0.00  0.00    -0.001 A 
ENDROOT
TORSDOF 0
ENDMDL
