MODEL 1
REMARK minimizedAffinity 8.39100361
REMARK minimizedRMSD -1
REMARK  0 active torsions:
REMARK  status: ('A' for Active; 'I' for Inactive)
ROOT
ATOM      1  C   UNL d   1      -5.997  -5.170   3.282  0.00  0.00     0.077 C 
ATOM      2  C1  UNL d   1      -5.286  -4.234   4.214  0.00  0.00    -0.074 A 
ATOM      3  C2  UNL d   1      -5.997  -3.457   5.133  0.00  0.00    -0.005 A 
ATOM      4  C3  UNL d   1      -5.322  -2.598   6.000  0.00  0.00     0.006 A 
ATOM      5  C4  UNL d   1      -3.930  -2.507   5.956  0.00  0.00    -0.005 A 
ATOM      6  C5  UNL d   1      -3.201  -3.277   5.044  0.00  0.00    -0.074 A 
ATOM      7  C6  UNL d   1      -1.704  -3.200   4.990  0.00  0.00     0.077 C 
ATOM      8  C7  UNL d   1      -3.887  -4.143   4.181  0.00  0.00    -0.001 A 
ENDROOT
TORSDOF 0
ENDMDL
