MODEL 1
REMARK minimizedAffinity 11.5625124
REMARK minimizedRMSD -1
REMARK  0 active torsions:
REMARK  status: ('A' for Active; 'I' for Inactive)
ROOT
ATOM      1  C   UNL d   1      -3.547   1.286  -2.951  0.00  0.00     0.077 C 
ATOM      2  C1  UNL d   1      -2.248   1.978  -2.660  0.00  0.00    -0.074 A 
ATOM      3  C2  UNL d   1      -1.532   2.619  -3.676  0.00  0.00    -0.005 A 
ATOM      4  C3  UNL d   1      -0.330   3.266  -3.388  0.00  0.00     0.006 A 
ATOM      5  C4  UNL d   1       0.167   3.278  -2.084  0.00  0.00    -0.005 A 
ATOM      6  C5  UNL d   1      -0.536   2.642  -1.055  0.00  0.00    -0.074 A 
ATOM      7  C6  UNL d   1      -0.020   2.654   0.353  0.00  0.00     0.077 C 
ATOM      8  C7  UNL d   1      -1.746   2.001  -1.351  0.00  0.00    -0.001 A 
ENDROOT
TORSDOF 0
ENDMDL
