MODEL 1
REMARK minimizedAffinity 22.2368717
REMARK minimizedRMSD -1
REMARK  0 active torsions:
REMARK  status: ('A' for Active; 'I' for Inactive)
ROOT
ATOM      1  C   UNL d   1       3.756   5.977  -4.200  0.00  0.00     0.077 C 
ATOM      2  C1  UNL d   1       2.343   5.589  -4.516  0.00  0.00    -0.074 A 
ATOM      3  C2  UNL d   1       1.737   5.989  -5.711  0.00  0.00    -0.005 A 
ATOM      4  C3  UNL d   1       0.425   5.613  -5.996  0.00  0.00     0.006 A 
ATOM      5  C4  UNL d   1      -0.295   4.833  -5.090  0.00  0.00    -0.005 A 
ATOM      6  C5  UNL d   1       0.294   4.422  -3.890  0.00  0.00    -0.074 A 
ATOM      7  C6  UNL d   1      -0.461   3.575  -2.909  0.00  0.00     0.077 C 
ATOM      8  C7  UNL d   1       1.616   4.799  -3.614  0.00  0.00    -0.001 A 
ENDROOT
TORSDOF 0
ENDMDL
