MODEL 1
REMARK minimizedAffinity 14.442708
REMARK minimizedRMSD -1
REMARK  0 active torsions:
REMARK  status: ('A' for Active; 'I' for Inactive)
ROOT
ATOM      1  C   UNL d   1      -2.011   4.969   0.399  0.00  0.00     0.077 C 
ATOM      2  C1  UNL d   1      -3.403   5.334   0.822  0.00  0.00    -0.074 A 
ATOM      3  C2  UNL d   1      -4.420   5.505  -0.124  0.00  0.00    -0.005 A 
ATOM      4  C3  UNL d   1      -5.712   5.836   0.285  0.00  0.00     0.006 A 
ATOM      5  C4  UNL d   1      -6.000   5.999   1.641  0.00  0.00    -0.005 A 
ATOM      6  C5  UNL d   1      -4.996   5.831   2.600  0.00  0.00    -0.074 A 
ATOM      7  C6  UNL d   1      -5.291   5.993   4.062  0.00  0.00     0.077 C 
ATOM      8  C7  UNL d   1      -3.702   5.492   2.182  0.00  0.00    -0.001 A 
ENDROOT
TORSDOF 0
ENDMDL
