MODEL 1
REMARK minimizedAffinity 13.5504179
REMARK minimizedRMSD -1
REMARK  0 active torsions:
REMARK  status: ('A' for Active; 'I' for Inactive)
ROOT
ATOM      1  C   UNL d   1       1.852  -5.014  -2.269  0.00  0.00     0.077 C 
ATOM      2  C1  UNL d   1       1.657  -4.303  -3.575  0.00  0.00    -0.074 A 
ATOM      3  C2  UNL d   1       1.052  -4.945  -4.660  0.00  0.00    -0.005 A 
ATOM      4  C3  UNL d   1       0.868  -4.267  -5.865  0.00  0.00     0.006 A 
ATOM      5  C4  UNL d   1       1.287  -2.943  -5.997  0.00  0.00    -0.005 A 
ATOM      6  C5  UNL d   1       1.894  -2.284  -4.923  0.00  0.00    -0.074 A 
ATOM      7  C6  UNL d   1       2.341  -0.858  -5.045  0.00  0.00     0.077 C 
ATOM      8  C7  UNL d   1       2.068  -2.969  -3.713  0.00  0.00    -0.001 A 
ENDROOT
TORSDOF 0
ENDMDL
