MODEL 1
REMARK minimizedAffinity 16.6081905
REMARK minimizedRMSD -1
REMARK  0 active torsions:
REMARK  status: ('A' for Active; 'I' for Inactive)
ROOT
ATOM      1  C   UNL d   1      -2.138   4.334  -0.262  0.00  0.00     0.077 C 
ATOM      2  C1  UNL d   1      -3.471   4.920   0.099  0.00  0.00    -0.074 A 
ATOM      3  C2  UNL d   1      -4.425   5.194  -0.886  0.00  0.00    -0.005 A 
ATOM      4  C3  UNL d   1      -5.664   5.729  -0.534  0.00  0.00     0.006 A 
ATOM      5  C4  UNL d   1      -5.961   5.996   0.803  0.00  0.00    -0.005 A 
ATOM      6  C5  UNL d   1      -5.019   5.727   1.801  0.00  0.00    -0.074 A 
ATOM      7  C6  UNL d   1      -5.326   5.998   3.244  0.00  0.00     0.077 C 
ATOM      8  C7  UNL d   1      -3.779   5.183   1.441  0.00  0.00    -0.001 A 
ENDROOT
TORSDOF 0
ENDMDL
