MODEL 1
REMARK minimizedAffinity 14.972352
REMARK minimizedRMSD -1
REMARK  0 active torsions:
REMARK  status: ('A' for Active; 'I' for Inactive)
ROOT
ATOM      1  C   UNL d   1      -2.173   2.797  -2.661  0.00  0.00     0.077 C 
ATOM      2  C1  UNL d   1      -1.052   2.805  -1.665  0.00  0.00    -0.074 A 
ATOM      3  C2  UNL d   1       0.140   3.488  -1.930  0.00  0.00    -0.005 A 
ATOM      4  C3  UNL d   1       1.170   3.494  -0.989  0.00  0.00     0.006 A 
ATOM      5  C4  UNL d   1       1.020   2.819   0.223  0.00  0.00    -0.005 A 
ATOM      6  C5  UNL d   1      -0.165   2.132   0.505  0.00  0.00    -0.074 A 
ATOM      7  C6  UNL d   1      -0.347   1.410   1.807  0.00  0.00     0.077 C 
ATOM      8  C7  UNL d   1      -1.198   2.136  -0.442  0.00  0.00    -0.001 A 
ENDROOT
TORSDOF 0
ENDMDL
