MODEL 1
REMARK minimizedAffinity 6.26128864
REMARK minimizedRMSD -1
REMARK  0 active torsions:
REMARK  status: ('A' for Active; 'I' for Inactive)
ROOT
ATOM      1  C   UNL d   1       2.068  -1.498  -6.000  0.00  0.00     0.077 C 
ATOM      2  C1  UNL d   1       2.639  -2.452  -4.994  0.00  0.00    -0.074 A 
ATOM      3  C2  UNL d   1       3.956  -2.911  -5.105  0.00  0.00    -0.005 A 
ATOM      4  C3  UNL d   1       4.476  -3.791  -4.157  0.00  0.00     0.006 A 
ATOM      5  C4  UNL d   1       3.687  -4.221  -3.089  0.00  0.00    -0.005 A 
ATOM      6  C5  UNL d   1       2.369  -3.772  -2.960  0.00  0.00    -0.074 A 
ATOM      7  C6  UNL d   1       1.511  -4.215  -1.813  0.00  0.00     0.077 C 
ATOM      8  C7  UNL d   1       1.856  -2.882  -3.914  0.00  0.00    -0.001 A 
ENDROOT
TORSDOF 0
ENDMDL
