MODEL 1
REMARK minimizedAffinity 18.3962803
REMARK minimizedRMSD -1
REMARK  0 active torsions:
REMARK  status: ('A' for Active; 'I' for Inactive)
ROOT
ATOM      1  C   UNL d   1      -2.374   3.245   0.049  0.00  0.00     0.077 C 
ATOM      2  C1  UNL d   1      -3.478   4.211   0.363  0.00  0.00    -0.074 A 
ATOM      3  C2  UNL d   1      -4.274   4.748  -0.654  0.00  0.00    -0.005 A 
ATOM      4  C3  UNL d   1      -5.303   5.638  -0.346  0.00  0.00     0.006 A 
ATOM      5  C4  UNL d   1      -5.546   6.000   0.980  0.00  0.00    -0.005 A 
ATOM      6  C5  UNL d   1      -4.761   5.473   2.010  0.00  0.00    -0.074 A 
ATOM      7  C6  UNL d   1      -5.014   5.843   3.441  0.00  0.00     0.077 C 
ATOM      8  C7  UNL d   1      -3.733   4.573   1.693  0.00  0.00    -0.001 A 
ENDROOT
TORSDOF 0
ENDMDL
