MODEL 1
REMARK minimizedAffinity 12.8592339
REMARK minimizedRMSD -1
REMARK  0 active torsions:
REMARK  status: ('A' for Active; 'I' for Inactive)
ROOT
ATOM      1  C   UNL d   1      -5.980   5.761  -1.763  0.00  0.00     0.077 C 
ATOM      2  C1  UNL d   1      -5.103   5.834  -0.549  0.00  0.00    -0.074 A 
ATOM      3  C2  UNL d   1      -3.710   5.876  -0.671  0.00  0.00    -0.005 A 
ATOM      4  C3  UNL d   1      -2.907   5.953   0.467  0.00  0.00     0.006 A 
ATOM      5  C4  UNL d   1      -3.487   5.990   1.736  0.00  0.00    -0.005 A 
ATOM      6  C5  UNL d   1      -4.878   5.951   1.877  0.00  0.00    -0.074 A 
ATOM      7  C6  UNL d   1      -5.518   6.000   3.232  0.00  0.00     0.077 C 
ATOM      8  C7  UNL d   1      -5.678   5.880   0.728  0.00  0.00    -0.001 A 
ENDROOT
TORSDOF 0
ENDMDL
