MODEL 1
REMARK minimizedAffinity 6.45677376
REMARK minimizedRMSD -1
REMARK  0 active torsions:
REMARK  status: ('A' for Active; 'I' for Inactive)
ROOT
ATOM      1  C   UNL d   1      -0.072   1.926   0.951  0.00  0.00     0.077 C 
ATOM      2  C1  UNL d   1      -0.268   2.971  -0.107  0.00  0.00    -0.074 A 
ATOM      3  C2  UNL d   1       0.168   4.285   0.090  0.00  0.00    -0.005 A 
ATOM      4  C3  UNL d   1      -0.012   5.243  -0.907  0.00  0.00     0.006 A 
ATOM      5  C4  UNL d   1      -0.629   4.897  -2.110  0.00  0.00    -0.005 A 
ATOM      6  C5  UNL d   1      -1.070   3.588  -2.326  0.00  0.00    -0.074 A 
ATOM      7  C6  UNL d   1      -1.726   3.198  -3.617  0.00  0.00     0.077 C 
ATOM      8  C7  UNL d   1      -0.879   2.629  -1.322  0.00  0.00    -0.001 A 
ENDROOT
TORSDOF 0
ENDMDL
