MODEL 1
REMARK minimizedAffinity 6.20528316
REMARK minimizedRMSD -1
REMARK  0 active torsions:
REMARK  status: ('A' for Active; 'I' for Inactive)
ROOT
ATOM      1  C   UNL d   1       0.565   5.955  -1.587  0.00  0.00     0.077 C 
ATOM      2  C1  UNL d   1      -0.078   4.608  -1.436  0.00  0.00    -0.074 A 
ATOM      3  C2  UNL d   1      -0.915   4.096  -2.432  0.00  0.00    -0.005 A 
ATOM      4  C3  UNL d   1      -1.498   2.838  -2.282  0.00  0.00     0.006 A 
ATOM      5  C4  UNL d   1      -1.250   2.081  -1.136  0.00  0.00    -0.005 A 
ATOM      6  C5  UNL d   1      -0.415   2.577  -0.130  0.00  0.00    -0.074 A 
ATOM      7  C6  UNL d   1      -0.131   1.772   1.104  0.00  0.00     0.077 C 
ATOM      8  C7  UNL d   1       0.172   3.839  -0.291  0.00  0.00    -0.001 A 
ENDROOT
TORSDOF 0
ENDMDL
