MODEL 1
REMARK minimizedAffinity 10.1555481
REMARK minimizedRMSD -1
REMARK  0 active torsions:
REMARK  status: ('A' for Active; 'I' for Inactive)
ROOT
ATOM      1  C   UNL d   1      -3.709   0.144  -0.352  0.00  0.00     0.077 C 
ATOM      2  C1  UNL d   1      -2.977   0.421   0.928  0.00  0.00    -0.074 A 
ATOM      3  C2  UNL d   1      -3.606   1.082   1.988  0.00  0.00    -0.005 A 
ATOM      4  C3  UNL d   1      -2.916   1.323   3.175  0.00  0.00     0.006 A 
ATOM      5  C4  UNL d   1      -1.592   0.907   3.315  0.00  0.00    -0.005 A 
ATOM      6  C5  UNL d   1      -0.946   0.244   2.267  0.00  0.00    -0.074 A 
ATOM      7  C6  UNL d   1       0.474  -0.219   2.404  0.00  0.00     0.077 C 
ATOM      8  C7  UNL d   1      -1.649  -0.002   1.079  0.00  0.00    -0.001 A 
ENDROOT
TORSDOF 0
ENDMDL
