MODEL 1
REMARK minimizedAffinity -4.15368509
REMARK minimizedRMSD -1
REMARK  2 active torsions:
REMARK  status: ('A' for Active; 'I' for Inactive)
REMARK    1  A    between atoms: C1_2  and  C2_3 
REMARK    2  A    between atoms: C2_3  and  C3_4 
ROOT
ATOM      1  C3  UNL d   1      -0.913   0.782  -1.640  0.00  0.00    -0.075 A 
ATOM      2  C4  UNL d   1      -1.143  -0.197  -2.618  0.00  0.00     0.002 A 
ATOM      3  C5  UNL d   1      -1.923   0.091  -3.738  0.00  0.00     0.002 A 
ATOM      4  C6  UNL d   1      -2.489   1.354  -3.891  0.00  0.00    -0.004 A 
ATOM      5  C7  UNL d   1      -2.281   2.329  -2.918  0.00  0.00     0.002 A 
ATOM      6  C8  UNL d   1      -1.498   2.046  -1.798  0.00  0.00     0.002 A 
ENDROOT
BRANCH   1   7
ATOM      7  C2  UNL d   1      -0.047   0.487  -0.439  0.00  0.00     0.056 C 
BRANCH   7   8
ATOM      8  C1  UNL d   1       1.395   0.103  -0.790  0.00  0.00     0.007 C 
ATOM      9  C   UNL d   1       2.271  -0.122   0.435  0.00  0.00     0.009 C 
ENDBRANCH   7   8
ENDBRANCH   1   7
TORSDOF 2
ENDMDL
