MODEL 1
REMARK minimizedAffinity -5.90217733
REMARK minimizedRMSD -1
REMARK  2 active torsions:
REMARK  status: ('A' for Active; 'I' for Inactive)
REMARK    1  A    between atoms: C1_2  and  C2_3 
REMARK    2  A    between atoms: C2_3  and  C3_4 
ROOT
ATOM      1  C3  UNL d   1      -0.075  -0.000  -0.054  0.00  0.00    -0.075 A 
ATOM      2  C4  UNL d   1      -0.559  -0.864   0.939  0.00  0.00     0.002 A 
ATOM      3  C5  UNL d   1       0.223  -1.924   1.399  0.00  0.00     0.002 A 
ATOM      4  C6  UNL d   1       1.493  -2.138   0.868  0.00  0.00    -0.004 A 
ATOM      5  C7  UNL d   1       1.978  -1.296  -0.130  0.00  0.00     0.002 A 
ATOM      6  C8  UNL d   1       1.199  -0.232  -0.590  0.00  0.00     0.002 A 
ENDROOT
BRANCH   1   7
ATOM      7  C2  UNL d   1      -0.905   1.166  -0.536  0.00  0.00     0.056 C 
BRANCH   7   8
ATOM      8  C1  UNL d   1      -1.117   1.195  -2.053  0.00  0.00     0.007 C 
ATOM      9  C   UNL d   1      -2.584   1.281  -2.452  0.00  0.00     0.009 C 
ENDBRANCH   7   8
ENDBRANCH   1   7
TORSDOF 2
ENDMDL
