MODEL 1
REMARK minimizedAffinity -3.41011572
REMARK minimizedRMSD -1
REMARK  2 active torsions:
REMARK  status: ('A' for Active; 'I' for Inactive)
REMARK    1  A    between atoms: C1_2  and  C2_3 
REMARK    2  A    between atoms: C2_3  and  C3_4 
ROOT
ATOM      1  C3  UNL d   1       0.454   0.178   0.622  0.00  0.00    -0.075 A 
ATOM      2  C4  UNL d   1       1.820   0.211   0.309  0.00  0.00     0.002 A 
ATOM      3  C5  UNL d   1       2.614  -0.924   0.479  0.00  0.00     0.002 A 
ATOM      4  C6  UNL d   1       2.055  -2.101   0.972  0.00  0.00    -0.004 A 
ATOM      5  C7  UNL d   1       0.702  -2.140   1.302  0.00  0.00     0.002 A 
ATOM      6  C8  UNL d   1      -0.095  -1.007   1.129  0.00  0.00     0.002 A 
ENDROOT
BRANCH   1   7
ATOM      7  C2  UNL d   1      -0.416   1.394   0.413  0.00  0.00     0.056 C 
BRANCH   7   8
ATOM      8  C1  UNL d   1      -0.874   1.592  -1.036  0.00  0.00     0.007 C 
ATOM      9  C   UNL d   1      -0.400   2.906  -1.642  0.00  0.00     0.009 C 
ENDBRANCH   7   8
ENDBRANCH   1   7
TORSDOF 2
ENDMDL
