MODEL 1
REMARK minimizedAffinity -5.54532385
REMARK minimizedRMSD -1
REMARK  2 active torsions:
REMARK  status: ('A' for Active; 'I' for Inactive)
REMARK    1  A    between atoms: C1_2  and  C2_3 
REMARK    2  A    between atoms: C2_3  and  C3_4 
ROOT
ATOM      1  C3  UNL d   1       0.271  -0.134  -0.147  0.00  0.00    -0.075 A 
ATOM      2  C4  UNL d   1       1.664   0.023  -0.168  0.00  0.00     0.002 A 
ATOM      3  C5  UNL d   1       2.500  -1.023   0.226  0.00  0.00     0.002 A 
ATOM      4  C6  UNL d   1       1.955  -2.231   0.654  0.00  0.00    -0.004 A 
ATOM      5  C7  UNL d   1       0.572  -2.391   0.695  0.00  0.00     0.002 A 
ATOM      6  C8  UNL d   1      -0.267  -1.349   0.297  0.00  0.00     0.002 A 
ENDROOT
BRANCH   1   7
ATOM      7  C2  UNL d   1      -0.639   0.984  -0.600  0.00  0.00     0.056 C 
BRANCH   7   8
ATOM      8  C1  UNL d   1      -0.984   0.941  -2.093  0.00  0.00     0.007 C 
ATOM      9  C   UNL d   1      -2.401   1.409  -2.395  0.00  0.00     0.009 C 
ENDBRANCH   7   8
ENDBRANCH   1   7
TORSDOF 2
ENDMDL
