MODEL 1
REMARK minimizedAffinity -4.27355671
REMARK minimizedRMSD -1
REMARK  2 active torsions:
REMARK  status: ('A' for Active; 'I' for Inactive)
REMARK    1  A    between atoms: C1_2  and  C2_3 
REMARK    2  A    between atoms: C2_3  and  C3_4 
ROOT
ATOM      1  C3  UNL d   1       0.025  -0.255   0.072  0.00  0.00    -0.075 A 
ATOM      2  C4  UNL d   1      -0.203   0.882  -0.716  0.00  0.00     0.002 A 
ATOM      3  C5  UNL d   1      -1.031   1.907  -0.258  0.00  0.00     0.002 A 
ATOM      4  C6  UNL d   1      -1.649   1.804   0.986  0.00  0.00    -0.004 A 
ATOM      5  C7  UNL d   1      -1.444   0.670   1.770  0.00  0.00     0.002 A 
ATOM      6  C8  UNL d   1      -0.612  -0.355   1.316  0.00  0.00     0.002 A 
ENDROOT
BRANCH   1   7
ATOM      7  C2  UNL d   1       0.944  -1.355  -0.406  0.00  0.00     0.056 C 
BRANCH   7   8
ATOM      8  C1  UNL d   1       1.659  -2.104   0.723  0.00  0.00     0.007 C 
ATOM      9  C   UNL d   1       2.974  -1.455   1.135  0.00  0.00     0.009 C 
ENDBRANCH   7   8
ENDBRANCH   1   7
TORSDOF 2
ENDMDL
