MODEL 1
REMARK minimizedAffinity -5.69446182
REMARK minimizedRMSD -1
REMARK  2 active torsions:
REMARK  status: ('A' for Active; 'I' for Inactive)
REMARK    1  A    between atoms: C1_2  and  C2_3 
REMARK    2  A    between atoms: C2_3  and  C3_4 
ROOT
ATOM      1  C3  UNL d   1       0.474   0.149   0.338  0.00  0.00    -0.075 A 
ATOM      2  C4  UNL d   1       1.875   0.145   0.277  0.00  0.00     0.002 A 
ATOM      3  C5  UNL d   1       2.609  -0.859   0.909  0.00  0.00     0.002 A 
ATOM      4  C6  UNL d   1       1.954  -1.864   1.618  0.00  0.00    -0.004 A 
ATOM      5  C7  UNL d   1       0.563  -1.860   1.700  0.00  0.00     0.002 A 
ATOM      6  C8  UNL d   1      -0.174  -0.859   1.064  0.00  0.00     0.002 A 
ENDROOT
BRANCH   1   7
ATOM      7  C2  UNL d   1      -0.328   1.216  -0.369  0.00  0.00     0.056 C 
BRANCH   7   8
ATOM      8  C1  UNL d   1      -0.701   0.862  -1.812  0.00  0.00     0.007 C 
ATOM      9  C   UNL d   1      -1.618   1.888  -2.464  0.00  0.00     0.009 C 
ENDBRANCH   7   8
ENDBRANCH   1   7
TORSDOF 2
ENDMDL
