MODEL 1
REMARK minimizedAffinity -2.39066005
REMARK minimizedRMSD -1
REMARK  2 active torsions:
REMARK  status: ('A' for Active; 'I' for Inactive)
REMARK    1  A    between atoms: C1_2  and  C2_3 
REMARK    2  A    between atoms: C2_3  and  C3_4 
ROOT
ATOM      1  C3  UNL d   1       0.454  -0.337  -0.691  0.00  0.00    -0.075 A 
ATOM      2  C4  UNL d   1       1.522  -0.645  -1.546  0.00  0.00     0.002 A 
ATOM      3  C5  UNL d   1       2.771  -0.984  -1.025  0.00  0.00     0.002 A 
ATOM      4  C6  UNL d   1       2.970  -1.010   0.354  0.00  0.00    -0.004 A 
ATOM      5  C7  UNL d   1       1.920  -0.690   1.212  0.00  0.00     0.002 A 
ATOM      6  C8  UNL d   1       0.669  -0.355   0.693  0.00  0.00     0.002 A 
ENDROOT
BRANCH   1   7
ATOM      7  C2  UNL d   1      -0.908   0.002  -1.249  0.00  0.00     0.056 C 
BRANCH   7   8
ATOM      8  C1  UNL d   1      -0.866   0.782  -2.567  0.00  0.00     0.007 C 
ATOM      9  C   UNL d   1      -2.183   0.742  -3.331  0.00  0.00     0.009 C 
ENDBRANCH   7   8
ENDBRANCH   1   7
TORSDOF 2
ENDMDL
