MODEL 1
REMARK minimizedAffinity -3.55440497
REMARK minimizedRMSD -1
REMARK  2 active torsions:
REMARK  status: ('A' for Active; 'I' for Inactive)
REMARK    1  A    between atoms: C1_2  and  C2_3 
REMARK    2  A    between atoms: C2_3  and  C3_4 
ROOT
ATOM      1  C3  UNL d   1       0.433  -1.032   0.126  0.00  0.00    -0.075 A 
ATOM      2  C4  UNL d   1       1.202  -0.076  -0.554  0.00  0.00     0.002 A 
ATOM      3  C5  UNL d   1       0.846   1.272  -0.523  0.00  0.00     0.002 A 
ATOM      4  C6  UNL d   1      -0.286   1.681   0.177  0.00  0.00    -0.004 A 
ATOM      5  C7  UNL d   1      -1.067   0.738   0.843  0.00  0.00     0.002 A 
ATOM      6  C8  UNL d   1      -0.710  -0.612   0.817  0.00  0.00     0.002 A 
ENDROOT
BRANCH   1   7
ATOM      7  C2  UNL d   1       0.830  -2.489   0.121  0.00  0.00     0.056 C 
BRANCH   7   8
ATOM      8  C1  UNL d   1       1.827  -2.868   1.221  0.00  0.00     0.007 C 
ATOM      9  C   UNL d   1       2.758  -1.726   1.607  0.00  0.00     0.009 C 
ENDBRANCH   7   8
ENDBRANCH   1   7
TORSDOF 2
ENDMDL
