MODEL 1
REMARK minimizedAffinity -4.70100927
REMARK minimizedRMSD -1
REMARK  2 active torsions:
REMARK  status: ('A' for Active; 'I' for Inactive)
REMARK    1  A    between atoms: C1_2  and  C2_3 
REMARK    2  A    between atoms: C2_3  and  C3_4 
ROOT
ATOM      1  C3  UNL d   1       0.404  -0.076  -0.276  0.00  0.00    -0.075 A 
ATOM      2  C4  UNL d   1      -0.021  -1.192   0.459  0.00  0.00     0.002 A 
ATOM      3  C5  UNL d   1       0.909  -2.075   1.008  0.00  0.00     0.002 A 
ATOM      4  C6  UNL d   1       2.273  -1.859   0.822  0.00  0.00    -0.004 A 
ATOM      5  C7  UNL d   1       2.706  -0.763   0.080  0.00  0.00     0.002 A 
ATOM      6  C8  UNL d   1       1.778   0.124  -0.467  0.00  0.00     0.002 A 
ENDROOT
BRANCH   1   7
ATOM      7  C2  UNL d   1      -0.597   0.899  -0.848  0.00  0.00     0.056 C 
BRANCH   7   8
ATOM      8  C1  UNL d   1      -1.525   0.292  -1.906  0.00  0.00     0.007 C 
ATOM      9  C   UNL d   1      -2.366   1.331  -2.634  0.00  0.00     0.009 C 
ENDBRANCH   7   8
ENDBRANCH   1   7
TORSDOF 2
ENDMDL
