MODEL 1
REMARK minimizedAffinity -5.38118887
REMARK minimizedRMSD -1
REMARK  2 active torsions:
REMARK  status: ('A' for Active; 'I' for Inactive)
REMARK    1  A    between atoms: C1_2  and  C2_3 
REMARK    2  A    between atoms: C2_3  and  C3_4 
ROOT
ATOM      1  C3  UNL d   1       0.293  -0.067   0.146  0.00  0.00    -0.075 A 
ATOM      2  C4  UNL d   1       1.648  -0.077  -0.215  0.00  0.00     0.002 A 
ATOM      3  C5  UNL d   1       2.445  -1.190   0.056  0.00  0.00     0.002 A 
ATOM      4  C6  UNL d   1       1.902  -2.300   0.700  0.00  0.00    -0.004 A 
ATOM      5  C7  UNL d   1       0.561  -2.294   1.078  0.00  0.00     0.002 A 
ATOM      6  C8  UNL d   1      -0.240  -1.183   0.804  0.00  0.00     0.002 A 
ENDROOT
BRANCH   1   7
ATOM      7  C2  UNL d   1      -0.582   1.122  -0.170  0.00  0.00     0.056 C 
BRANCH   7   8
ATOM      8  C1  UNL d   1      -0.857   1.313  -1.666  0.00  0.00     0.007 C 
ATOM      9  C   UNL d   1      -2.280   1.770  -1.960  0.00  0.00     0.009 C 
ENDBRANCH   7   8
ENDBRANCH   1   7
TORSDOF 2
ENDMDL
