MODEL 1
REMARK minimizedAffinity -3.95140886
REMARK minimizedRMSD -1
REMARK  2 active torsions:
REMARK  status: ('A' for Active; 'I' for Inactive)
REMARK    1  A    between atoms: C1_2  and  C2_3 
REMARK    2  A    between atoms: C2_3  and  C3_4 
ROOT
ATOM      1  C3  UNL d   1       0.749   0.184  -0.117  0.00  0.00    -0.075 A 
ATOM      2  C4  UNL d   1       0.729  -1.134  -0.596  0.00  0.00     0.002 A 
ATOM      3  C5  UNL d   1       1.800  -1.993  -0.353  0.00  0.00     0.002 A 
ATOM      4  C6  UNL d   1       2.908  -1.545   0.363  0.00  0.00    -0.004 A 
ATOM      5  C7  UNL d   1       2.947  -0.233   0.830  0.00  0.00     0.002 A 
ATOM      6  C8  UNL d   1       1.874   0.628   0.591  0.00  0.00     0.002 A 
ENDROOT
BRANCH   1   7
ATOM      7  C2  UNL d   1      -0.420   1.110  -0.352  0.00  0.00     0.056 C 
BRANCH   7   8
ATOM      8  C1  UNL d   1      -0.597   1.533  -1.814  0.00  0.00     0.007 C 
ATOM      9  C   UNL d   1      -2.045   1.826  -2.183  0.00  0.00     0.009 C 
ENDBRANCH   7   8
ENDBRANCH   1   7
TORSDOF 2
ENDMDL
