MODEL 1
REMARK minimizedAffinity -4.88120985
REMARK minimizedRMSD -1
REMARK  2 active torsions:
REMARK  status: ('A' for Active; 'I' for Inactive)
REMARK    1  A    between atoms: C1_2  and  C2_3 
REMARK    2  A    between atoms: C2_3  and  C3_4 
ROOT
ATOM      1  C3  UNL d   1       0.401  -0.105   0.246  0.00  0.00    -0.075 A 
ATOM      2  C4  UNL d   1       1.657   0.151   0.816  0.00  0.00     0.002 A 
ATOM      3  C5  UNL d   1       2.528  -0.898   1.109  0.00  0.00     0.002 A 
ATOM      4  C6  UNL d   1       2.153  -2.214   0.847  0.00  0.00    -0.004 A 
ATOM      5  C7  UNL d   1       0.901  -2.480   0.296  0.00  0.00     0.002 A 
ATOM      6  C8  UNL d   1       0.029  -1.432  -0.003  0.00  0.00     0.002 A 
ENDROOT
BRANCH   1   7
ATOM      7  C2  UNL d   1      -0.535   1.028  -0.101  0.00  0.00     0.056 C 
BRANCH   7   8
ATOM      8  C1  UNL d   1      -0.582   1.363  -1.596  0.00  0.00     0.007 C 
ATOM      9  C   UNL d   1      -1.976   1.737  -2.083  0.00  0.00     0.009 C 
ENDBRANCH   7   8
ENDBRANCH   1   7
TORSDOF 2
ENDMDL
