MODEL 1
REMARK minimizedAffinity -5.52268219
REMARK minimizedRMSD -1
REMARK  2 active torsions:
REMARK  status: ('A' for Active; 'I' for Inactive)
REMARK    1  A    between atoms: C1_2  and  C2_3 
REMARK    2  A    between atoms: C2_3  and  C3_4 
ROOT
ATOM      1  C3  UNL d   1       0.000   0.427   0.432  0.00  0.00    -0.075 A 
ATOM      2  C4  UNL d   1      -0.657  -0.177   1.514  0.00  0.00     0.002 A 
ATOM      3  C5  UNL d   1      -0.037  -1.194   2.240  0.00  0.00     0.002 A 
ATOM      4  C6  UNL d   1       1.240  -1.627   1.889  0.00  0.00    -0.004 A 
ATOM      5  C7  UNL d   1       1.895  -1.046   0.805  0.00  0.00     0.002 A 
ATOM      6  C8  UNL d   1       1.279  -0.025   0.079  0.00  0.00     0.002 A 
ENDROOT
BRANCH   1   7
ATOM      7  C2  UNL d   1      -0.653   1.549  -0.340  0.00  0.00     0.056 C 
BRANCH   7   8
ATOM      8  C1  UNL d   1      -1.151   1.141  -1.731  0.00  0.00     0.007 C 
ATOM      9  C   UNL d   1      -0.243   1.617  -2.857  0.00  0.00     0.009 C 
ENDBRANCH   7   8
ENDBRANCH   1   7
TORSDOF 2
ENDMDL
