MODEL 1
REMARK minimizedAffinity -4.94276524
REMARK minimizedRMSD -1
REMARK  2 active torsions:
REMARK  status: ('A' for Active; 'I' for Inactive)
REMARK    1  A    between atoms: C1_2  and  C2_3 
REMARK    2  A    between atoms: C2_3  and  C3_4 
ROOT
ATOM      1  C3  UNL d   1      -0.025   0.087  -0.007  0.00  0.00    -0.075 A 
ATOM      2  C4  UNL d   1       1.325  -0.014  -0.374  0.00  0.00     0.002 A 
ATOM      3  C5  UNL d   1       2.074  -1.135  -0.014  0.00  0.00     0.002 A 
ATOM      4  C6  UNL d   1       1.489  -2.161   0.724  0.00  0.00    -0.004 A 
ATOM      5  C7  UNL d   1       0.153  -2.063   1.108  0.00  0.00     0.002 A 
ATOM      6  C8  UNL d   1      -0.600  -0.945   0.746  0.00  0.00     0.002 A 
ENDROOT
BRANCH   1   7
ATOM      7  C2  UNL d   1      -0.849   1.283  -0.418  0.00  0.00     0.056 C 
BRANCH   7   8
ATOM      8  C1  UNL d   1      -1.959   0.960  -1.425  0.00  0.00     0.007 C 
ATOM      9  C   UNL d   1      -2.044   1.963  -2.567  0.00  0.00     0.009 C 
ENDBRANCH   7   8
ENDBRANCH   1   7
TORSDOF 2
ENDMDL
