MODEL 1
REMARK minimizedAffinity -5.50307608
REMARK minimizedRMSD -1
REMARK  2 active torsions:
REMARK  status: ('A' for Active; 'I' for Inactive)
REMARK    1  A    between atoms: C1_2  and  C2_3 
REMARK    2  A    between atoms: C2_3  and  C3_4 
ROOT
ATOM      1  C3  UNL d   1       0.491  -0.164   0.058  0.00  0.00    -0.075 A 
ATOM      2  C4  UNL d   1       1.009  -1.162   0.896  0.00  0.00     0.002 A 
ATOM      3  C5  UNL d   1       2.358  -1.511   0.832  0.00  0.00     0.002 A 
ATOM      4  C6  UNL d   1       3.202  -0.877  -0.077  0.00  0.00    -0.004 A 
ATOM      5  C7  UNL d   1       2.695   0.103  -0.927  0.00  0.00     0.002 A 
ATOM      6  C8  UNL d   1       1.347   0.459  -0.861  0.00  0.00     0.002 A 
ENDROOT
BRANCH   1   7
ATOM      7  C2  UNL d   1      -0.961   0.240   0.143  0.00  0.00     0.056 C 
BRANCH   7   8
ATOM      8  C1  UNL d   1      -1.363   0.839   1.496  0.00  0.00     0.007 C 
ATOM      9  C   UNL d   1      -2.237  -0.091   2.327  0.00  0.00     0.009 C 
ENDBRANCH   7   8
ENDBRANCH   1   7
TORSDOF 2
ENDMDL
