MODEL 1
REMARK minimizedAffinity -4.81048536
REMARK minimizedRMSD -1
REMARK  1 active torsions:
REMARK  status: ('A' for Active; 'I' for Inactive)
REMARK    1  A    between atoms: C1_2  and  C2_3 
ROOT
ATOM      1  C2  UNL d   1      -0.504  -0.107  -0.403  0.00  0.00    -0.076 A 
ATOM      2  C3  UNL d   1      -0.970  -0.494   0.865  0.00  0.00     0.004 A 
ATOM      3  C4  UNL d   1      -0.981  -1.835   1.247  0.00  0.00    -0.003 A 
ATOM      4  C5  UNL d   1      -0.526  -2.810   0.367  0.00  0.00     0.000 A 
ATOM      5  C6  UNL d   1      -0.044  -2.442  -0.889  0.00  0.00     0.000 A 
ATOM      6  C7  UNL d   1      -0.011  -1.093  -1.283  0.00  0.00    -0.073 A 
ATOM      7  C8  UNL d   1       0.514  -0.754  -2.652  0.00  0.00     0.078 C 
ENDROOT
BRANCH   1   8
ATOM      8  C1  UNL d   1      -0.542   1.359  -0.772  0.00  0.00     0.053 C 
ATOM      9  C   UNL d   1       0.442   2.189   0.039  0.00  0.00     0.018 C 
ENDBRANCH   1   8
TORSDOF 1
ENDMDL
