MODEL 1
REMARK minimizedAffinity -3.64061737
REMARK minimizedRMSD -1
REMARK  1 active torsions:
REMARK  status: ('A' for Active; 'I' for Inactive)
REMARK    1  A    between atoms: C1_2  and  C2_3 
ROOT
ATOM      1  C2  UNL d   1       0.500  -1.458  -0.462  0.00  0.00    -0.076 A 
ATOM      2  C3  UNL d   1       0.325  -0.503   0.554  0.00  0.00     0.004 A 
ATOM      3  C4  UNL d   1       0.252   0.857   0.256  0.00  0.00    -0.003 A 
ATOM      4  C5  UNL d   1       0.352   1.283  -1.064  0.00  0.00     0.000 A 
ATOM      5  C6  UNL d   1       0.509   0.348  -2.087  0.00  0.00     0.000 A 
ATOM      6  C7  UNL d   1       0.568  -1.028  -1.804  0.00  0.00    -0.073 A 
ATOM      7  C8  UNL d   1       0.744  -1.992  -2.946  0.00  0.00     0.078 C 
ENDROOT
BRANCH   1   8
ATOM      8  C1  UNL d   1       0.600  -2.916  -0.076  0.00  0.00     0.053 C 
ATOM      9  C   UNL d   1      -0.665  -3.694  -0.405  0.00  0.00     0.018 C 
ENDBRANCH   1   8
TORSDOF 1
ENDMDL
