MODEL 1
REMARK minimizedAffinity -4.82872152
REMARK minimizedRMSD -1
REMARK  1 active torsions:
REMARK  status: ('A' for Active; 'I' for Inactive)
REMARK    1  A    between atoms: C1_2  and  C2_3 
ROOT
ATOM      1  C2  UNL d   1      -0.133  -0.235  -0.090  0.00  0.00    -0.076 A 
ATOM      2  C3  UNL d   1      -0.518  -0.500   1.235  0.00  0.00     0.004 A 
ATOM      3  C4  UNL d   1      -0.561  -1.806   1.722  0.00  0.00    -0.003 A 
ATOM      4  C5  UNL d   1      -0.218  -2.867   0.892  0.00  0.00     0.000 A 
ATOM      5  C6  UNL d   1       0.184  -2.621  -0.420  0.00  0.00     0.000 A 
ATOM      6  C7  UNL d   1       0.248  -1.310  -0.922  0.00  0.00    -0.073 A 
ATOM      7  C8  UNL d   1       0.683  -1.103  -2.347  0.00  0.00     0.078 C 
ENDROOT
BRANCH   1   8
ATOM      8  C1  UNL d   1      -0.131   1.198  -0.571  0.00  0.00     0.053 C 
ATOM      9  C   UNL d   1       0.928   2.044   0.119  0.00  0.00     0.018 C 
ENDBRANCH   1   8
TORSDOF 1
ENDMDL
