MODEL 1
REMARK minimizedAffinity -2.73380542
REMARK minimizedRMSD -1
REMARK  1 active torsions:
REMARK  status: ('A' for Active; 'I' for Inactive)
REMARK    1  A    between atoms: C1_2  and  C2_3 
ROOT
ATOM      1  C2  UNL d   1      -0.884  -1.509  -0.261  0.00  0.00    -0.076 A 
ATOM      2  C3  UNL d   1      -0.405  -1.546  -1.582  0.00  0.00     0.004 A 
ATOM      3  C4  UNL d   1       0.011  -0.383  -2.227  0.00  0.00    -0.003 A 
ATOM      4  C5  UNL d   1      -0.044   0.837  -1.561  0.00  0.00     0.000 A 
ATOM      5  C6  UNL d   1      -0.500   0.889  -0.244  0.00  0.00     0.000 A 
ATOM      6  C7  UNL d   1      -0.908  -0.277   0.426  0.00  0.00    -0.073 A 
ATOM      7  C8  UNL d   1      -1.397  -0.161   1.844  0.00  0.00     0.078 C 
ENDROOT
BRANCH   1   8
ATOM      8  C1  UNL d   1      -1.348  -2.799   0.377  0.00  0.00     0.053 C 
ATOM      9  C   UNL d   1      -0.573  -4.008  -0.124  0.00  0.00     0.018 C 
ENDBRANCH   1   8
TORSDOF 1
ENDMDL
