MODEL 1
REMARK minimizedAffinity -3.50842595
REMARK minimizedRMSD -1
REMARK  1 active torsions:
REMARK  status: ('A' for Active; 'I' for Inactive)
REMARK    1  A    between atoms: C1_2  and  C2_3 
ROOT
ATOM      1  C2  UNL d   1      -0.259  -0.837  -0.738  0.00  0.00    -0.076 A 
ATOM      2  C3  UNL d   1      -0.929  -2.052  -0.516  0.00  0.00     0.004 A 
ATOM      3  C4  UNL d   1      -1.363  -2.410   0.759  0.00  0.00    -0.003 A 
ATOM      4  C5  UNL d   1      -1.135  -1.558   1.834  0.00  0.00     0.000 A 
ATOM      5  C6  UNL d   1      -0.488  -0.340   1.629  0.00  0.00     0.000 A 
ATOM      6  C7  UNL d   1      -0.058   0.044   0.347  0.00  0.00    -0.073 A 
ATOM      7  C8  UNL d   1       0.640   1.366   0.185  0.00  0.00     0.078 C 
ENDROOT
BRANCH   1   8
ATOM      8  C1  UNL d   1       0.212  -0.514  -2.137  0.00  0.00     0.053 C 
ATOM      9  C   UNL d   1       0.340  -1.754  -3.009  0.00  0.00     0.018 C 
ENDBRANCH   1   8
TORSDOF 1
ENDMDL
