MODEL 1
REMARK minimizedAffinity -3.63131166
REMARK minimizedRMSD -1
REMARK  1 active torsions:
REMARK  status: ('A' for Active; 'I' for Inactive)
REMARK    1  A    between atoms: C1_2  and  C2_3 
ROOT
ATOM      1  C2  UNL d   1       0.399   0.393   0.367  0.00  0.00    -0.076 A 
ATOM      2  C3  UNL d   1       0.250  -0.028   1.700  0.00  0.00     0.004 A 
ATOM      3  C4  UNL d   1      -0.515  -1.149   2.017  0.00  0.00    -0.003 A 
ATOM      4  C5  UNL d   1      -1.144  -1.868   1.006  0.00  0.00     0.000 A 
ATOM      5  C6  UNL d   1      -0.993  -1.474  -0.324  0.00  0.00     0.000 A 
ATOM      6  C7  UNL d   1      -0.211  -0.356  -0.662  0.00  0.00    -0.073 A 
ATOM      7  C8  UNL d   1      -0.088   0.026  -2.111  0.00  0.00     0.078 C 
ENDROOT
BRANCH   1   8
ATOM      8  C1  UNL d   1       1.219   1.632   0.086  0.00  0.00     0.053 C 
ATOM      9  C   UNL d   1       0.594   2.889   0.669  0.00  0.00     0.018 C 
ENDBRANCH   1   8
TORSDOF 1
ENDMDL
