MODEL 1
REMARK minimizedAffinity -3.025491
REMARK minimizedRMSD -1
REMARK  1 active torsions:
REMARK  status: ('A' for Active; 'I' for Inactive)
REMARK    1  A    between atoms: C1_2  and  C2_3 
ROOT
ATOM      1  C2  UNL d   1       0.594   1.634   0.191  0.00  0.00    -0.076 A 
ATOM      2  C3  UNL d   1       0.883   0.898   1.354  0.00  0.00     0.004 A 
ATOM      3  C4  UNL d   1       0.286  -0.340   1.586  0.00  0.00    -0.003 A 
ATOM      4  C5  UNL d   1      -0.608  -0.863   0.658  0.00  0.00     0.000 A 
ATOM      5  C6  UNL d   1      -0.893  -0.155  -0.509  0.00  0.00     0.000 A 
ATOM      6  C7  UNL d   1      -0.287   1.088  -0.766  0.00  0.00    -0.073 A 
ATOM      7  C8  UNL d   1      -0.635   1.811  -2.038  0.00  0.00     0.078 C 
ENDROOT
BRANCH   1   8
ATOM      8  C1  UNL d   1       1.251   2.984   0.007  0.00  0.00     0.053 C 
ATOM      9  C   UNL d   1       1.338   3.772   1.305  0.00  0.00     0.018 C 
ENDBRANCH   1   8
TORSDOF 1
ENDMDL
