MODEL 1
REMARK minimizedAffinity -1.12042522
REMARK minimizedRMSD -1
REMARK  1 active torsions:
REMARK  status: ('A' for Active; 'I' for Inactive)
REMARK    1  A    between atoms: C1_2  and  C2_3 
ROOT
ATOM      1  C2  UNL d   1      -0.428   0.218   0.104  0.00  0.00    -0.076 A 
ATOM      2  C3  UNL d   1      -0.888   0.259   1.432  0.00  0.00     0.004 A 
ATOM      3  C4  UNL d   1      -1.384  -0.885   2.054  0.00  0.00    -0.003 A 
ATOM      4  C5  UNL d   1      -1.427  -2.089   1.360  0.00  0.00     0.000 A 
ATOM      5  C6  UNL d   1      -0.958  -2.152   0.048  0.00  0.00     0.000 A 
ATOM      6  C7  UNL d   1      -0.440  -1.011  -0.589  0.00  0.00    -0.073 A 
ATOM      7  C8  UNL d   1       0.047  -1.134  -2.007  0.00  0.00     0.078 C 
ENDROOT
BRANCH   1   8
ATOM      8  C1  UNL d   1       0.074   1.497  -0.528  0.00  0.00     0.053 C 
ATOM      9  C   UNL d   1       0.898   2.339   0.434  0.00  0.00     0.018 C 
ENDBRANCH   1   8
TORSDOF 1
ENDMDL
