MODEL 1
REMARK minimizedAffinity 6.83404922
REMARK minimizedRMSD -1
REMARK  1 active torsions:
REMARK  status: ('A' for Active; 'I' for Inactive)
REMARK    1  A    between atoms: C1_2  and  C2_3 
ROOT
ATOM      1  C2  UNL d   1      -1.030  -3.433   1.455  0.00  0.00    -0.073 A 
ATOM      2  C3  UNL d   1      -0.539  -2.399   2.260  0.00  0.00    -0.002 A 
ATOM      3  C4  UNL d   1      -0.433  -1.102   1.756  0.00  0.00     0.004 A 
ATOM      4  C5  UNL d   1      -0.822  -0.825   0.446  0.00  0.00    -0.004 A 
ATOM      5  C6  UNL d   1      -1.326  -1.842  -0.371  0.00  0.00    -0.075 A 
ATOM      6  C7  UNL d   1      -1.746  -1.560  -1.784  0.00  0.00     0.076 C 
ATOM      7  C8  UNL d   1      -1.427  -3.142   0.142  0.00  0.00     0.001 A 
ENDROOT
BRANCH   1   8
ATOM      8  C1  UNL d   1      -1.152  -4.833   1.997  0.00  0.00     0.053 C 
ATOM      9  C   UNL d   1      -2.359  -5.562   1.426  0.00  0.00     0.018 C 
ENDBRANCH   1   8
TORSDOF 1
ENDMDL
