MODEL 1
REMARK minimizedAffinity 11.1455584
REMARK minimizedRMSD -1
REMARK  1 active torsions:
REMARK  status: ('A' for Active; 'I' for Inactive)
REMARK    1  A    between atoms: C1_2  and  C2_3 
ROOT
ATOM      1  C2  UNL d   1       3.748   1.373  -0.755  0.00  0.00    -0.073 A 
ATOM      2  C3  UNL d   1       2.674   1.352   0.142  0.00  0.00    -0.002 A 
ATOM      3  C4  UNL d   1       2.672   0.466   1.220  0.00  0.00     0.004 A 
ATOM      4  C5  UNL d   1       3.746  -0.402   1.416  0.00  0.00    -0.004 A 
ATOM      5  C6  UNL d   1       4.834  -0.389   0.538  0.00  0.00    -0.075 A 
ATOM      6  C7  UNL d   1       5.996  -1.318   0.733  0.00  0.00     0.076 C 
ATOM      7  C8  UNL d   1       4.827   0.502  -0.544  0.00  0.00     0.001 A 
ENDROOT
BRANCH   1   8
ATOM      8  C1  UNL d   1       3.756   2.332  -1.916  0.00  0.00     0.053 C 
ATOM      9  C   UNL d   1       3.765   1.609  -3.254  0.00  0.00     0.018 C 
ENDBRANCH   1   8
TORSDOF 1
ENDMDL
