MODEL 1
REMARK minimizedAffinity 11.464447
REMARK minimizedRMSD -1
REMARK  1 active torsions:
REMARK  status: ('A' for Active; 'I' for Inactive)
REMARK    1  A    between atoms: C1_2  and  C2_3 
ROOT
ATOM      1  C2  UNL d   1       1.888   1.279   1.329  0.00  0.00    -0.073 A 
ATOM      2  C3  UNL d   1       2.676   0.193   1.726  0.00  0.00    -0.002 A 
ATOM      3  C4  UNL d   1       3.895  -0.060   1.095  0.00  0.00     0.004 A 
ATOM      4  C5  UNL d   1       4.341   0.772   0.069  0.00  0.00    -0.004 A 
ATOM      5  C6  UNL d   1       3.573   1.869  -0.334  0.00  0.00    -0.075 A 
ATOM      6  C7  UNL d   1       4.037   2.773  -1.438  0.00  0.00     0.076 C 
ATOM      7  C8  UNL d   1       2.349   2.116   0.302  0.00  0.00     0.001 A 
ENDROOT
BRANCH   1   8
ATOM      8  C1  UNL d   1       0.574   1.560   2.011  0.00  0.00     0.053 C 
ATOM      9  C   UNL d   1       0.416   0.762   3.296  0.00  0.00     0.018 C 
ENDBRANCH   1   8
TORSDOF 1
ENDMDL
