MODEL 1
REMARK minimizedAffinity 9.40940189
REMARK minimizedRMSD -1
REMARK  1 active torsions:
REMARK  status: ('A' for Active; 'I' for Inactive)
REMARK    1  A    between atoms: C1_2  and  C2_3 
ROOT
ATOM      1  C2  UNL d   1      -4.794   2.816   3.371  0.00  0.00    -0.073 A 
ATOM      2  C3  UNL d   1      -4.621   3.265   4.685  0.00  0.00    -0.002 A 
ATOM      3  C4  UNL d   1      -4.885   4.595   5.015  0.00  0.00     0.004 A 
ATOM      4  C5  UNL d   1      -5.331   5.486   4.039  0.00  0.00    -0.004 A 
ATOM      5  C6  UNL d   1      -5.521   5.053   2.723  0.00  0.00    -0.075 A 
ATOM      6  C7  UNL d   1      -5.998   6.000   1.661  0.00  0.00     0.076 C 
ATOM      7  C8  UNL d   1      -5.251   3.717   2.398  0.00  0.00     0.001 A 
ENDROOT
BRANCH   1   8
ATOM      8  C1  UNL d   1      -4.516   1.380   3.010  0.00  0.00     0.053 C 
ATOM      9  C   UNL d   1      -5.225   0.410   3.943  0.00  0.00     0.018 C 
ENDBRANCH   1   8
TORSDOF 1
ENDMDL
