MODEL 1
REMARK minimizedAffinity 6.51757383
REMARK minimizedRMSD -1
REMARK  1 active torsions:
REMARK  status: ('A' for Active; 'I' for Inactive)
REMARK    1  A    between atoms: C1_2  and  C2_3 
ROOT
ATOM      1  C2  UNL d   1       4.875  -0.683   0.481  0.00  0.00    -0.073 A 
ATOM      2  C3  UNL d   1       3.574  -0.167   0.493  0.00  0.00    -0.002 A 
ATOM      3  C4  UNL d   1       2.867  -0.065   1.692  0.00  0.00     0.004 A 
ATOM      4  C5  UNL d   1       3.455  -0.471   2.890  0.00  0.00    -0.004 A 
ATOM      5  C6  UNL d   1       4.758  -0.978   2.901  0.00  0.00    -0.075 A 
ATOM      6  C7  UNL d   1       5.404  -1.420   4.181  0.00  0.00     0.076 C 
ATOM      7  C8  UNL d   1       5.461  -1.080   1.692  0.00  0.00     0.001 A 
ENDROOT
BRANCH   1   8
ATOM      8  C1  UNL d   1       5.645  -0.789  -0.810  0.00  0.00     0.053 C 
ATOM      9  C   UNL d   1       5.984  -2.231  -1.155  0.00  0.00     0.018 C 
ENDBRANCH   1   8
TORSDOF 1
ENDMDL
