MODEL 1
REMARK minimizedAffinity 4.06097794
REMARK minimizedRMSD -1
REMARK  1 active torsions:
REMARK  status: ('A' for Active; 'I' for Inactive)
REMARK    1  A    between atoms: C1_2  and  C2_3 
ROOT
ATOM      1  C2  UNL d   1      -5.429   2.717   4.825  0.00  0.00    -0.073 A 
ATOM      2  C3  UNL d   1      -5.737   2.018   5.998  0.00  0.00    -0.002 A 
ATOM      3  C4  UNL d   1      -6.000   0.648   5.954  0.00  0.00     0.004 A 
ATOM      4  C5  UNL d   1      -5.951  -0.037   4.740  0.00  0.00    -0.004 A 
ATOM      5  C6  UNL d   1      -5.633   0.641   3.559  0.00  0.00    -0.075 A 
ATOM      6  C7  UNL d   1      -5.579  -0.081   2.245  0.00  0.00     0.076 C 
ATOM      7  C8  UNL d   1      -5.373   2.017   3.611  0.00  0.00     0.001 A 
ENDROOT
BRANCH   1   8
ATOM      8  C1  UNL d   1      -5.138   4.194   4.869  0.00  0.00     0.053 C 
ATOM      9  C   UNL d   1      -5.881   4.889   5.999  0.00  0.00     0.018 C 
ENDBRANCH   1   8
TORSDOF 1
ENDMDL
