MODEL 1
REMARK minimizedAffinity 4.09750032
REMARK minimizedRMSD -1
REMARK  1 active torsions:
REMARK  status: ('A' for Active; 'I' for Inactive)
REMARK    1  A    between atoms: C1_2  and  C2_3 
ROOT
ATOM      1  C2  UNL d   1      -5.415   0.402   3.462  0.00  0.00    -0.073 A 
ATOM      2  C3  UNL d   1      -5.999  -0.253   4.552  0.00  0.00    -0.002 A 
ATOM      3  C4  UNL d   1      -5.999   0.340   5.815  0.00  0.00     0.004 A 
ATOM      4  C5  UNL d   1      -5.423   1.597   6.000  0.00  0.00    -0.004 A 
ATOM      5  C6  UNL d   1      -4.844   2.273   4.921  0.00  0.00    -0.075 A 
ATOM      6  C7  UNL d   1      -4.218   3.624   5.104  0.00  0.00     0.076 C 
ATOM      7  C8  UNL d   1      -4.846   1.669   3.656  0.00  0.00     0.001 A 
ENDROOT
BRANCH   1   8
ATOM      8  C1  UNL d   1      -5.419  -0.232   2.096  0.00  0.00     0.053 C 
ATOM      9  C   UNL d   1      -4.225  -1.151   1.891  0.00  0.00     0.018 C 
ENDBRANCH   1   8
TORSDOF 1
ENDMDL
