MODEL 1
REMARK minimizedAffinity 11.851799
REMARK minimizedRMSD -1
REMARK  1 active torsions:
REMARK  status: ('A' for Active; 'I' for Inactive)
REMARK    1  A    between atoms: C1_2  and  C2_3 
ROOT
ATOM      1  C2  UNL d   1       1.954   0.318   1.926  0.00  0.00    -0.073 A 
ATOM      2  C3  UNL d   1       1.597   1.610   1.523  0.00  0.00    -0.002 A 
ATOM      3  C4  UNL d   1       0.719   2.372   2.295  0.00  0.00     0.004 A 
ATOM      4  C5  UNL d   1       0.197   1.854   3.480  0.00  0.00    -0.004 A 
ATOM      5  C6  UNL d   1       0.552   0.570   3.906  0.00  0.00    -0.075 A 
ATOM      6  C7  UNL d   1      -0.003  -0.003   5.177  0.00  0.00     0.076 C 
ATOM      7  C8  UNL d   1       1.431  -0.190   3.123  0.00  0.00     0.001 A 
ENDROOT
BRANCH   1   8
ATOM      8  C1  UNL d   1       2.907  -0.506   1.098  0.00  0.00     0.053 C 
ATOM      9  C   UNL d   1       4.223  -0.752   1.819  0.00  0.00     0.018 C 
ENDBRANCH   1   8
TORSDOF 1
ENDMDL
