MODEL 1
REMARK minimizedAffinity 8.19213104
REMARK minimizedRMSD -1
REMARK  1 active torsions:
REMARK  status: ('A' for Active; 'I' for Inactive)
REMARK    1  A    between atoms: C1_2  and  C2_3 
ROOT
ATOM      1  C2  UNL d   1      -3.618  -3.195  -2.621  0.00  0.00    -0.073 A 
ATOM      2  C3  UNL d   1      -3.094  -2.573  -1.482  0.00  0.00    -0.002 A 
ATOM      3  C4  UNL d   1      -1.922  -1.820  -1.566  0.00  0.00     0.004 A 
ATOM      4  C5  UNL d   1      -1.267  -1.676  -2.788  0.00  0.00    -0.004 A 
ATOM      5  C6  UNL d   1      -1.781  -2.279  -3.941  0.00  0.00    -0.075 A 
ATOM      6  C7  UNL d   1      -1.087  -2.135  -5.263  0.00  0.00     0.076 C 
ATOM      7  C8  UNL d   1      -2.957  -3.036  -3.848  0.00  0.00     0.001 A 
ENDROOT
BRANCH   1   8
ATOM      8  C1  UNL d   1      -4.887  -4.003  -2.537  0.00  0.00     0.053 C 
ATOM      9  C   UNL d   1      -5.999  -3.409  -3.387  0.00  0.00     0.018 C 
ENDBRANCH   1   8
TORSDOF 1
ENDMDL
