MODEL 1
REMARK minimizedAffinity 15.7322474
REMARK minimizedRMSD -1
REMARK  1 active torsions:
REMARK  status: ('A' for Active; 'I' for Inactive)
REMARK    1  A    between atoms: C1_2  and  C2_3 
ROOT
ATOM      1  C2  UNL d   1      -2.945  -3.711  -2.429  0.00  0.00    -0.073 A 
ATOM      2  C3  UNL d   1      -3.258  -4.976  -1.920  0.00  0.00    -0.002 A 
ATOM      3  C4  UNL d   1      -4.454  -5.602  -2.274  0.00  0.00     0.004 A 
ATOM      4  C5  UNL d   1      -5.344  -4.974  -3.145  0.00  0.00    -0.004 A 
ATOM      5  C6  UNL d   1      -5.043  -3.714  -3.673  0.00  0.00    -0.075 A 
ATOM      6  C7  UNL d   1      -5.991  -3.023  -4.609  0.00  0.00     0.076 C 
ATOM      7  C8  UNL d   1      -3.841  -3.091  -3.310  0.00  0.00     0.001 A 
ENDROOT
BRANCH   1   8
ATOM      8  C1  UNL d   1      -1.652  -3.034  -2.054  0.00  0.00     0.053 C 
ATOM      9  C   UNL d   1      -1.871  -1.880  -1.088  0.00  0.00     0.018 C 
ENDBRANCH   1   8
TORSDOF 1
ENDMDL
