MODEL 1
REMARK minimizedAffinity 10.9426603
REMARK minimizedRMSD -1
REMARK  0 active torsions:
REMARK  status: ('A' for Active; 'I' for Inactive)
ROOT
ATOM      1  C1  DEN d   1      -1.967   1.930   0.070  0.00  0.00     0.130 A 
ATOM      2  C2  DEN d   1      -0.789   2.789   0.147  0.00  0.00    -0.031 A 
ATOM      3  C3  DEN d   1       0.180   2.328  -0.867  0.00  0.00     0.027 A 
ATOM      4  C4  DEN d   1      -0.031   0.379  -2.544  0.00  0.00     0.027 A 
ATOM      5  C5  DEN d   1      -0.844  -0.645  -2.978  0.00  0.00    -0.003 A 
ATOM      6  C6  DEN d   1      -2.063  -0.901  -2.410  0.00  0.00     0.001 A 
ATOM      7  C7  DEN d   1      -2.525  -0.095  -1.403  0.00  0.00     0.017 A 
ATOM      8  C8  DEN d   1      -1.708   0.934  -0.954  0.00  0.00    -0.094 A 
ATOM      9  C9  DEN d   1      -0.484   1.185  -1.550  0.00  0.00    -0.072 A 
ENDROOT
TORSDOF 0
ENDMDL
