MODEL 1
REMARK minimizedAffinity 6.25342178
REMARK minimizedRMSD -1
REMARK  0 active torsions:
REMARK  status: ('A' for Active; 'I' for Inactive)
ROOT
ATOM      1  C1  DEN d   1      -2.706   1.034  -0.190  0.00  0.00     0.130 A 
ATOM      2  C2  DEN d   1      -3.688  -0.037  -0.327  0.00  0.00    -0.031 A 
ATOM      3  C3  DEN d   1      -3.416  -0.747  -1.593  0.00  0.00     0.027 A 
ATOM      4  C4  DEN d   1      -1.575  -0.297  -3.342  0.00  0.00     0.027 A 
ATOM      5  C5  DEN d   1      -0.511   0.515  -3.668  0.00  0.00    -0.003 A 
ATOM      6  C6  DEN d   1      -0.128   1.569  -2.882  0.00  0.00     0.001 A 
ATOM      7  C7  DEN d   1      -0.787   1.812  -1.705  0.00  0.00     0.017 A 
ATOM      8  C8  DEN d   1      -1.865   1.003  -1.373  0.00  0.00    -0.094 A 
ATOM      9  C9  DEN d   1      -2.229  -0.065  -2.176  0.00  0.00    -0.072 A 
ENDROOT
TORSDOF 0
ENDMDL
