MODEL 1
REMARK minimizedAffinity 6.95858335
REMARK minimizedRMSD -1
REMARK  0 active torsions:
REMARK  status: ('A' for Active; 'I' for Inactive)
ROOT
ATOM      1  C1  DEN d   1       0.949  -0.974   2.766  0.00  0.00     0.130 A 
ATOM      2  C2  DEN d   1       0.257  -1.144   4.041  0.00  0.00    -0.031 A 
ATOM      3  C3  DEN d   1      -0.686  -0.019   4.202  0.00  0.00     0.027 A 
ATOM      4  C4  DEN d   1      -1.142   1.956   2.608  0.00  0.00     0.027 A 
ATOM      5  C5  DEN d   1      -0.789   2.537   1.409  0.00  0.00    -0.003 A 
ATOM      6  C6  DEN d   1       0.184   2.010   0.602  0.00  0.00     0.001 A 
ATOM      7  C7  DEN d   1       0.807   0.844   0.962  0.00  0.00     0.017 A 
ATOM      8  C8  DEN d   1       0.461   0.257   2.172  0.00  0.00    -0.094 A 
ATOM      9  C9  DEN d   1      -0.534   0.798   2.968  0.00  0.00    -0.072 A 
ENDROOT
TORSDOF 0
ENDMDL
