MODEL 1
REMARK minimizedAffinity 14.6989717
REMARK minimizedRMSD -1
REMARK  0 active torsions:
REMARK  status: ('A' for Active; 'I' for Inactive)
ROOT
ATOM      1  C1  DEN d   1       0.197   2.376  -0.049  0.00  0.00     0.130 A 
ATOM      2  C2  DEN d   1      -0.804   2.827   0.913  0.00  0.00    -0.031 A 
ATOM      3  C3  DEN d   1      -2.110   2.267   0.510  0.00  0.00     0.027 A 
ATOM      4  C4  DEN d   1      -2.674   0.749  -1.497  0.00  0.00     0.027 A 
ATOM      5  C5  DEN d   1      -2.156   0.109  -2.602  0.00  0.00    -0.003 A 
ATOM      6  C6  DEN d   1      -0.834   0.207  -2.949  0.00  0.00     0.001 A 
ATOM      7  C7  DEN d   1       0.024   0.925  -2.159  0.00  0.00     0.017 A 
ATOM      8  C8  DEN d   1      -0.493   1.579  -1.048  0.00  0.00    -0.094 A 
ATOM      9  C9  DEN d   1      -1.829   1.458  -0.707  0.00  0.00    -0.072 A 
ENDROOT
TORSDOF 0
ENDMDL
