MODEL 1
REMARK minimizedAffinity 13.4304218
REMARK minimizedRMSD -1
REMARK  0 active torsions:
REMARK  status: ('A' for Active; 'I' for Inactive)
ROOT
ATOM      1  C1  DEN d   1      -2.440  -0.465  -0.674  0.00  0.00     0.130 A 
ATOM      2  C2  DEN d   1      -3.449  -0.906  -1.634  0.00  0.00    -0.031 A 
ATOM      3  C3  DEN d   1      -3.088  -0.359  -2.958  0.00  0.00     0.027 A 
ATOM      4  C4  DEN d   1      -1.075   1.114  -3.611  0.00  0.00     0.027 A 
ATOM      5  C5  DEN d   1       0.048   1.756  -3.136  0.00  0.00    -0.003 A 
ATOM      6  C6  DEN d   1       0.398   1.731  -1.812  0.00  0.00     0.001 A 
ATOM      7  C7  DEN d   1      -0.358   1.012  -0.924  0.00  0.00     0.017 A 
ATOM      8  C8  DEN d   1      -1.495   0.369  -1.394  0.00  0.00    -0.094 A 
ATOM      9  C9  DEN d   1      -1.825   0.396  -2.738  0.00  0.00    -0.072 A 
ENDROOT
TORSDOF 0
ENDMDL
