MODEL 1
REMARK minimizedAffinity 0.801844716
REMARK minimizedRMSD -1
REMARK  0 active torsions:
REMARK  status: ('A' for Active; 'I' for Inactive)
ROOT
ATOM      1  C1  DEN d   1      -0.631   0.943  -1.520  0.00  0.00     0.130 A 
ATOM      2  C2  DEN d   1      -0.864   1.878  -2.618  0.00  0.00    -0.031 A 
ATOM      3  C3  DEN d   1      -0.792   3.249  -2.073  0.00  0.00     0.027 A 
ATOM      4  C4  DEN d   1      -0.341   4.011   0.349  0.00  0.00     0.027 A 
ATOM      5  C5  DEN d   1      -0.095   3.580   1.634  0.00  0.00    -0.003 A 
ATOM      6  C6  DEN d   1      -0.045   2.250   1.962  0.00  0.00     0.001 A 
ATOM      7  C7  DEN d   1      -0.199   1.304   0.983  0.00  0.00     0.017 A 
ATOM      8  C8  DEN d   1      -0.454   1.731  -0.313  0.00  0.00    -0.094 A 
ATOM      9  C9  DEN d   1      -0.489   3.079  -0.626  0.00  0.00    -0.072 A 
ENDROOT
TORSDOF 0
ENDMDL
