MODEL 1
REMARK minimizedAffinity 4.5679059
REMARK minimizedRMSD -1
REMARK  0 active torsions:
REMARK  status: ('A' for Active; 'I' for Inactive)
ROOT
ATOM      1  C1  DEN d   1      -0.184   0.513  -1.363  0.00  0.00     0.130 A 
ATOM      2  C2  DEN d   1      -0.553   1.648  -2.205  0.00  0.00    -0.031 A 
ATOM      3  C3  DEN d   1      -0.668   2.840  -1.341  0.00  0.00     0.027 A 
ATOM      4  C4  DEN d   1      -0.308   3.038   1.206  0.00  0.00     0.027 A 
ATOM      5  C5  DEN d   1       0.005   2.342   2.353  0.00  0.00    -0.003 A 
ATOM      6  C6  DEN d   1       0.242   0.993   2.347  0.00  0.00     0.001 A 
ATOM      7  C7  DEN d   1       0.213   0.304   1.163  0.00  0.00     0.017 A 
ATOM      8  C8  DEN d   1      -0.109   0.997   0.004  0.00  0.00    -0.094 A 
ATOM      9  C9  DEN d   1      -0.332   2.364   0.028  0.00  0.00    -0.072 A 
ENDROOT
TORSDOF 0
ENDMDL
