MODEL 1
REMARK minimizedAffinity 7.19464397
REMARK minimizedRMSD -1
REMARK  0 active torsions:
REMARK  status: ('A' for Active; 'I' for Inactive)
ROOT
ATOM      1  C1  DEN d   1      -1.094  -0.030   4.487  0.00  0.00     0.130 A 
ATOM      2  C2  DEN d   1      -0.200  -1.147   4.779  0.00  0.00    -0.031 A 
ATOM      3  C3  DEN d   1       0.855  -1.169   3.746  0.00  0.00     0.027 A 
ATOM      4  C4  DEN d   1       1.191   0.413   1.736  0.00  0.00     0.027 A 
ATOM      5  C5  DEN d   1       0.680   1.503   1.068  0.00  0.00    -0.003 A 
ATOM      6  C6  DEN d   1      -0.468   2.133   1.470  0.00  0.00     0.001 A 
ATOM      7  C7  DEN d   1      -1.119   1.705   2.597  0.00  0.00     0.017 A 
ATOM      8  C8  DEN d   1      -0.613   0.601   3.271  0.00  0.00    -0.094 A 
ATOM      9  C9  DEN d   1       0.555  -0.014   2.856  0.00  0.00    -0.072 A 
ENDROOT
TORSDOF 0
ENDMDL
