MODEL 1
REMARK minimizedAffinity 8.41537952
REMARK minimizedRMSD -1
REMARK  0 active torsions:
REMARK  status: ('A' for Active; 'I' for Inactive)
ROOT
ATOM      1  C1  DEN d   1       0.422   2.088  -0.175  0.00  0.00     0.130 A 
ATOM      2  C2  DEN d   1      -0.344   2.284   1.053  0.00  0.00    -0.031 A 
ATOM      3  C3  DEN d   1      -1.596   1.510   0.939  0.00  0.00     0.027 A 
ATOM      4  C4  DEN d   1      -2.417   0.029  -1.007  0.00  0.00     0.027 A 
ATOM      5  C5  DEN d   1      -2.116  -0.436  -2.268  0.00  0.00    -0.003 A 
ATOM      6  C6  DEN d   1      -0.973  -0.069  -2.928  0.00  0.00     0.001 A 
ATOM      7  C7  DEN d   1      -0.067   0.753  -2.311  0.00  0.00     0.017 A 
ATOM      8  C8  DEN d   1      -0.367   1.232  -1.043  0.00  0.00    -0.094 A 
ATOM      9  C9  DEN d   1      -1.522   0.840  -0.387  0.00  0.00    -0.072 A 
ENDROOT
TORSDOF 0
ENDMDL
