MODEL 1
REMARK minimizedAffinity -1.32147133
REMARK minimizedRMSD -1
REMARK  0 active torsions:
REMARK  status: ('A' for Active; 'I' for Inactive)
ROOT
ATOM      1  C1  DEN d   1       0.877   0.657  -0.580  0.00  0.00     0.130 A 
ATOM      2  C2  DEN d   1       0.115   1.605  -1.388  0.00  0.00    -0.031 A 
ATOM      3  C3  DEN d   1      -0.857   2.280  -0.505  0.00  0.00     0.027 A 
ATOM      4  C4  DEN d   1      -1.250   1.955   2.024  0.00  0.00     0.027 A 
ATOM      5  C5  DEN d   1      -0.854   1.252   3.140  0.00  0.00    -0.003 A 
ATOM      6  C6  DEN d   1       0.115   0.286   3.089  0.00  0.00     0.001 A 
ATOM      7  C7  DEN d   1       0.753   0.027   1.904  0.00  0.00     0.017 A 
ATOM      8  C8  DEN d   1       0.354   0.726   0.773  0.00  0.00    -0.094 A 
ATOM      9  C9  DEN d   1      -0.619   1.708   0.848  0.00  0.00    -0.072 A 
ENDROOT
TORSDOF 0
ENDMDL
