MODEL 1
REMARK minimizedAffinity 9.99122334
REMARK minimizedRMSD -1
REMARK  1 active torsions:
REMARK  status: ('A' for Active; 'I' for Inactive)
REMARK    1  A    between atoms: N_2  and  C1_3 
ROOT
ATOM      1  C1  UNL d   1       2.973  -2.099   3.857  0.00  0.00     0.143 A 
ATOM      2  C2  UNL d   1       1.964  -1.130   3.876  0.00  0.00    -0.057 A 
ATOM      3  C3  UNL d   1       0.963  -1.104   2.896  0.00  0.00     0.033 A 
ATOM      4  C4  UNL d   1       0.971  -2.033   1.861  0.00  0.00    -0.042 A 
ATOM      5  C5  UNL d   1       1.979  -2.989   1.808  0.00  0.00     0.033 A 
ATOM      6  C6  UNL d   1       2.971  -3.014   2.792  0.00  0.00    -0.057 A 
ENDROOT
BRANCH   1   7
ATOM      7  N   UNL d   1       4.051  -2.116   4.745  0.00  0.00    -0.732 N 
ATOM      8  C   UNL d   1       4.175  -3.167   5.733  0.00  0.00     0.284 C 
ATOM      9  H3  UNL d   1       4.928  -1.861   4.297  0.00  0.00     0.395 HD
ENDBRANCH   1   7
TORSDOF 1
ENDMDL
