MODEL 1
REMARK minimizedAffinity 11.1843433
REMARK minimizedRMSD -1
REMARK  1 active torsions:
REMARK  status: ('A' for Active; 'I' for Inactive)
REMARK    1  A    between atoms: N_2  and  C1_3 
ROOT
ATOM      1  C1  UNL d   1       4.784  -3.253   5.148  0.00  0.00     0.143 A 
ATOM      2  C2  UNL d   1       3.584  -3.847   5.552  0.00  0.00    -0.057 A 
ATOM      3  C3  UNL d   1       3.542  -5.177   5.986  0.00  0.00     0.033 A 
ATOM      4  C4  UNL d   1       4.700  -5.948   5.996  0.00  0.00    -0.042 A 
ATOM      5  C5  UNL d   1       5.900  -5.386   5.575  0.00  0.00     0.033 A 
ATOM      6  C6  UNL d   1       5.936  -4.055   5.149  0.00  0.00    -0.057 A 
ENDROOT
BRANCH   1   7
ATOM      7  N   UNL d   1       4.874  -1.965   4.613  0.00  0.00    -0.732 N 
ATOM      8  C   UNL d   1       5.986  -1.103   4.948  0.00  0.00     0.284 C 
ATOM      9  H3  UNL d   1       4.603  -1.932   3.632  0.00  0.00     0.395 HD
ENDBRANCH   1   7
TORSDOF 1
ENDMDL
