MODEL 1
REMARK minimizedAffinity 8.1593523
REMARK minimizedRMSD -1
REMARK  1 active torsions:
REMARK  status: ('A' for Active; 'I' for Inactive)
REMARK    1  A    between atoms: N_2  and  C1_3 
ROOT
ATOM      1  C1  UNL d   1      -4.051  -0.123  -2.781  0.00  0.00     0.143 A 
ATOM      2  C2  UNL d   1      -4.821   0.543  -3.740  0.00  0.00    -0.057 A 
ATOM      3  C3  UNL d   1      -5.797  -0.131  -4.484  0.00  0.00     0.033 A 
ATOM      4  C4  UNL d   1      -6.000  -1.495  -4.302  0.00  0.00    -0.042 A 
ATOM      5  C5  UNL d   1      -5.229  -2.183  -3.372  0.00  0.00     0.033 A 
ATOM      6  C6  UNL d   1      -4.261  -1.503  -2.627  0.00  0.00    -0.057 A 
ENDROOT
BRANCH   1   7
ATOM      7  N   UNL d   1      -2.999   0.470  -2.079  0.00  0.00    -0.732 N 
ATOM      8  C   UNL d   1      -2.299   1.612  -2.627  0.00  0.00     0.284 C 
ATOM      9  H3  UNL d   1      -3.186   0.537  -1.081  0.00  0.00     0.395 HD
ENDBRANCH   1   7
TORSDOF 1
ENDMDL
