MODEL 1
REMARK minimizedAffinity 11.2794752
REMARK minimizedRMSD -1
REMARK  1 active torsions:
REMARK  status: ('A' for Active; 'I' for Inactive)
REMARK    1  A    between atoms: N_2  and  C1_3 
ROOT
ATOM      1  C1  UNL d   1      -3.886   3.472  -3.892  0.00  0.00     0.143 A 
ATOM      2  C2  UNL d   1      -2.961   3.328  -2.852  0.00  0.00    -0.057 A 
ATOM      3  C3  UNL d   1      -2.716   2.079  -2.267  0.00  0.00     0.033 A 
ATOM      4  C4  UNL d   1      -3.415   0.955  -2.694  0.00  0.00    -0.042 A 
ATOM      5  C5  UNL d   1      -4.357   1.080  -3.709  0.00  0.00     0.033 A 
ATOM      6  C6  UNL d   1      -4.593   2.328  -4.293  0.00  0.00    -0.057 A 
ENDROOT
BRANCH   1   7
ATOM      7  N   UNL d   1      -4.246   4.703  -4.447  0.00  0.00    -0.732 N 
ATOM      8  C   UNL d   1      -3.781   5.941  -3.859  0.00  0.00     0.284 C 
ATOM      9  H3  UNL d   1      -4.223   4.692  -5.464  0.00  0.00     0.395 HD
ENDBRANCH   1   7
TORSDOF 1
ENDMDL
