MODEL 1
REMARK minimizedAffinity 9.29876518
REMARK minimizedRMSD -1
REMARK  1 active torsions:
REMARK  status: ('A' for Active; 'I' for Inactive)
REMARK    1  A    between atoms: N_2  and  C1_3 
ROOT
ATOM      1  C1  UNL d   1      -5.641  -0.017  -3.762  0.00  0.00     0.143 A 
ATOM      2  C2  UNL d   1      -5.999  -1.319  -4.128  0.00  0.00    -0.057 A 
ATOM      3  C3  UNL d   1      -5.525  -2.429  -3.420  0.00  0.00     0.033 A 
ATOM      4  C4  UNL d   1      -4.657  -2.258  -2.346  0.00  0.00    -0.042 A 
ATOM      5  C5  UNL d   1      -4.267  -0.975  -1.980  0.00  0.00     0.033 A 
ATOM      6  C6  UNL d   1      -4.749   0.131  -2.688  0.00  0.00    -0.057 A 
ENDROOT
BRANCH   1   7
ATOM      7  N   UNL d   1      -6.000   1.122  -4.487  0.00  0.00    -0.732 N 
ATOM      8  C   UNL d   1      -5.025   1.816  -5.300  0.00  0.00     0.284 C 
ATOM      9  H3  UNL d   1      -6.916   1.033  -4.921  0.00  0.00     0.395 HD
ENDBRANCH   1   7
TORSDOF 1
ENDMDL
