MODEL 1
REMARK minimizedAffinity -0.407223612
REMARK minimizedRMSD -1
REMARK  1 active torsions:
REMARK  status: ('A' for Active; 'I' for Inactive)
REMARK    1  A    between atoms: N_2  and  C1_3 
ROOT
ATOM      1  C1  UNL d   1      -2.881   3.201  -4.841  0.00  0.00     0.143 A 
ATOM      2  C2  UNL d   1      -2.762   4.594  -4.875  0.00  0.00    -0.057 A 
ATOM      3  C3  UNL d   1      -3.764   5.395  -5.435  0.00  0.00     0.033 A 
ATOM      4  C4  UNL d   1      -4.894   4.813  -6.000  0.00  0.00    -0.042 A 
ATOM      5  C5  UNL d   1      -5.022   3.429  -6.000  0.00  0.00     0.033 A 
ATOM      6  C6  UNL d   1      -4.021   2.634  -5.433  0.00  0.00    -0.057 A 
ENDROOT
BRANCH   1   7
ATOM      7  N   UNL d   1      -1.875   2.344  -4.386  0.00  0.00    -0.732 N 
ATOM      8  C   UNL d   1      -1.863   1.884  -3.015  0.00  0.00     0.284 C 
ATOM      9  H3  UNL d   1      -1.639   1.627  -5.068  0.00  0.00     0.395 HD
ENDBRANCH   1   7
TORSDOF 1
ENDMDL
