MODEL 1
REMARK minimizedAffinity 1.68424153
REMARK minimizedRMSD -1
REMARK  0 active torsions:
REMARK  status: ('A' for Active; 'I' for Inactive)
ROOT
ATOM      1  C1  BNZ d   1       2.924  -1.925   3.235  0.00  0.00     0.000 A 
ATOM      2  C2  BNZ d   1       1.902  -1.576   2.393  0.00  0.00     0.000 A 
ATOM      3  C3  BNZ d   1       0.884  -0.772   2.824  0.00  0.00     0.000 A 
ATOM      4  C4  BNZ d   1       0.868  -0.351   4.105  0.00  0.00     0.000 A 
ATOM      5  C5  BNZ d   1       1.886  -0.702   4.969  0.00  0.00     0.000 A 
ATOM      6  C6  BNZ d   1       2.929  -1.480   4.521  0.00  0.00     0.000 A 
ENDROOT
TORSDOF 0
ENDMDL
