MODEL 1
REMARK minimizedAffinity -4.29833603
REMARK minimizedRMSD -1
REMARK  0 active torsions:
REMARK  status: ('A' for Active; 'I' for Inactive)
ROOT
ATOM      1  C1  BNZ d   1       0.328  -0.624  -3.973  0.00  0.00     0.000 A 
ATOM      2  C2  BNZ d   1       1.088  -1.220  -3.002  0.00  0.00     0.000 A 
ATOM      3  C3  BNZ d   1       0.780  -2.469  -2.540  0.00  0.00     0.000 A 
ATOM      4  C4  BNZ d   1      -0.310  -3.103  -3.018  0.00  0.00     0.000 A 
ATOM      5  C5  BNZ d   1      -1.093  -2.511  -3.990  0.00  0.00     0.000 A 
ATOM      6  C6  BNZ d   1      -0.757  -1.271  -4.481  0.00  0.00     0.000 A 
ENDROOT
TORSDOF 0
ENDMDL
