MODEL 1
REMARK minimizedAffinity 2.47723961
REMARK minimizedRMSD -1
REMARK  0 active torsions:
REMARK  status: ('A' for Active; 'I' for Inactive)
ROOT
ATOM      1  C1  BNZ d   1       3.610  -1.812  -3.290  0.00  0.00     0.000 A 
ATOM      2  C2  BNZ d   1       3.653  -2.212  -4.599  0.00  0.00     0.000 A 
ATOM      3  C3  BNZ d   1       4.847  -2.464  -5.215  0.00  0.00     0.000 A 
ATOM      4  C4  BNZ d   1       5.996  -2.276  -4.535  0.00  0.00     0.000 A 
ATOM      5  C5  BNZ d   1       5.970  -1.864  -3.218  0.00  0.00     0.000 A 
ATOM      6  C6  BNZ d   1       4.765  -1.649  -2.589  0.00  0.00     0.000 A 
ENDROOT
TORSDOF 0
ENDMDL
