MODEL 1
REMARK minimizedAffinity -3.32411432
REMARK minimizedRMSD -1
REMARK  0 active torsions:
REMARK  status: ('A' for Active; 'I' for Inactive)
ROOT
ATOM      1  C1  BNZ d   1       0.760  -0.275  -3.834  0.00  0.00     0.000 A 
ATOM      2  C2  BNZ d   1       1.442  -1.158  -3.039  0.00  0.00     0.000 A 
ATOM      3  C3  BNZ d   1       0.779  -1.950  -2.144  0.00  0.00     0.000 A 
ATOM      4  C4  BNZ d   1      -0.558  -1.830  -2.015  0.00  0.00     0.000 A 
ATOM      5  C5  BNZ d   1      -1.258  -0.937  -2.803  0.00  0.00     0.000 A 
ATOM      6  C6  BNZ d   1      -0.592  -0.170  -3.731  0.00  0.00     0.000 A 
ENDROOT
TORSDOF 0
ENDMDL
