MODEL 1
REMARK minimizedAffinity -1.72063982
REMARK minimizedRMSD -1
REMARK  0 active torsions:
REMARK  status: ('A' for Active; 'I' for Inactive)
ROOT
ATOM      1  C1  BNZ d   1       1.844  -0.775   1.770  0.00  0.00     0.000 A 
ATOM      2  C2  BNZ d   1       1.299  -1.462   2.821  0.00  0.00     0.000 A 
ATOM      3  C3  BNZ d   1      -0.018  -1.306   3.153  0.00  0.00     0.000 A 
ATOM      4  C4  BNZ d   1      -0.777  -0.433   2.459  0.00  0.00     0.000 A 
ATOM      5  C5  BNZ d   1      -0.240   0.275   1.402  0.00  0.00     0.000 A 
ATOM      6  C6  BNZ d   1       1.076   0.085   1.047  0.00  0.00     0.000 A 
ENDROOT
TORSDOF 0
ENDMDL
