MODEL 1
REMARK minimizedAffinity -1.63247979
REMARK minimizedRMSD -1
REMARK  0 active torsions:
REMARK  status: ('A' for Active; 'I' for Inactive)
ROOT
ATOM      1  C1  BNZ d   1      -0.699  -4.502  -2.383  0.00  0.00     0.000 A 
ATOM      2  C2  BNZ d   1      -0.251  -3.264  -2.006  0.00  0.00     0.000 A 
ATOM      3  C3  BNZ d   1       1.075  -2.943  -2.095  0.00  0.00     0.000 A 
ATOM      4  C4  BNZ d   1       1.955  -3.872  -2.522  0.00  0.00     0.000 A 
ATOM      5  C5  BNZ d   1       1.519  -5.127  -2.896  0.00  0.00     0.000 A 
ATOM      6  C6  BNZ d   1       0.179  -5.434  -2.842  0.00  0.00     0.000 A 
ENDROOT
TORSDOF 0
ENDMDL
