MODEL 1
REMARK minimizedAffinity -2.63179588
REMARK minimizedRMSD -1
REMARK  2 active torsions:
REMARK  status: ('A' for Active; 'I' for Inactive)
REMARK    1  A    between atoms: C2'_3  and  C1'_4 
REMARK    2  A    between atoms: C1'_4  and  C1_5 
ROOT
ATOM      1  C1  I4B d   1      -5.597  -1.311   4.049  0.00  0.00    -0.075 A 
ATOM      2  C2  I4B d   1      -5.838  -2.400   3.249  0.00  0.00     0.003 A 
ATOM      3  C3  I4B d   1      -6.000  -3.684   3.823  0.00  0.00     0.002 A 
ATOM      4  C4  I4B d   1      -5.863  -3.841   5.187  0.00  0.00    -0.004 A 
ATOM      5  C5  I4B d   1      -5.642  -2.733   5.999  0.00  0.00     0.002 A 
ATOM      6  C6  I4B d   1      -5.520  -1.457   5.428  0.00  0.00     0.003 A 
ENDROOT
BRANCH   1   7
ATOM      7  C1' I4B d   1      -5.399   0.026   3.408  0.00  0.00     0.060 C 
BRANCH   7   8
ATOM      8  C2' I4B d   1      -4.902  -0.204   1.995  0.00  0.00    -0.013 C 
ATOM      9  C4' I4B d   1      -5.996  -0.744   1.113  0.00  0.00     0.013 C 
ATOM     10  C3' I4B d   1      -4.378   1.099   1.471  0.00  0.00     0.013 C 
ENDBRANCH   7   8
ENDBRANCH   1   7
TORSDOF 2
ENDMDL
