MODEL 1
REMARK minimizedAffinity 5.82598543
REMARK minimizedRMSD -1
REMARK  2 active torsions:
REMARK  status: ('A' for Active; 'I' for Inactive)
REMARK    1  A    between atoms: C2'_3  and  C1'_4 
REMARK    2  A    between atoms: C1'_4  and  C1_5 
ROOT
ATOM      1  C1  I4B d   1      -0.112   0.751   0.574  0.00  0.00    -0.075 A 
ATOM      2  C2  I4B d   1       0.400  -0.479   0.906  0.00  0.00     0.003 A 
ATOM      3  C3  I4B d   1       0.787  -0.753   2.240  0.00  0.00     0.002 A 
ATOM      4  C4  I4B d   1       0.692   0.240   3.194  0.00  0.00    -0.004 A 
ATOM      5  C5  I4B d   1       0.151   1.479   2.860  0.00  0.00     0.002 A 
ATOM      6  C6  I4B d   1      -0.265   1.732   1.545  0.00  0.00     0.003 A 
ENDROOT
BRANCH   1   7
ATOM      7  C1' I4B d   1      -0.480   1.017  -0.851  0.00  0.00     0.060 C 
BRANCH   7   8
ATOM      8  C2' I4B d   1      -1.747   0.245  -1.159  0.00  0.00    -0.013 C 
ATOM      9  C4' I4B d   1      -2.860   1.168  -1.580  0.00  0.00     0.013 C 
ATOM     10  C3' I4B d   1      -1.432  -0.750  -2.235  0.00  0.00     0.013 C 
ENDBRANCH   7   8
ENDBRANCH   1   7
TORSDOF 2
ENDMDL
