MODEL 1
REMARK minimizedAffinity -0.609024882
REMARK minimizedRMSD -1
REMARK  2 active torsions:
REMARK  status: ('A' for Active; 'I' for Inactive)
REMARK    1  A    between atoms: C2'_3  and  C1'_4 
REMARK    2  A    between atoms: C1'_4  and  C1_5 
ROOT
ATOM      1  C1  I4B d   1       1.000   2.999   1.964  0.00  0.00    -0.075 A 
ATOM      2  C2  I4B d   1       1.021   4.140   1.201  0.00  0.00     0.003 A 
ATOM      3  C3  I4B d   1       1.953   5.168   1.483  0.00  0.00     0.002 A 
ATOM      4  C4  I4B d   1       2.804   5.038   2.561  0.00  0.00    -0.004 A 
ATOM      5  C5  I4B d   1       2.796   3.871   3.320  0.00  0.00     0.002 A 
ATOM      6  C6  I4B d   1       1.897   2.839   3.012  0.00  0.00     0.003 A 
ENDROOT
BRANCH   1   7
ATOM      7  C1' I4B d   1      -0.019   1.947   1.660  0.00  0.00     0.060 C 
BRANCH   7   8
ATOM      8  C2' I4B d   1       0.703   0.757   1.063  0.00  0.00    -0.013 C 
ATOM      9  C4' I4B d   1       0.039  -0.537   1.457  0.00  0.00     0.013 C 
ATOM     10  C3' I4B d   1       0.721   0.925  -0.427  0.00  0.00     0.013 C 
ENDBRANCH   7   8
ENDBRANCH   1   7
TORSDOF 2
ENDMDL
