MODEL 1
REMARK minimizedAffinity -0.603121102
REMARK minimizedRMSD -1
REMARK  2 active torsions:
REMARK  status: ('A' for Active; 'I' for Inactive)
REMARK    1  A    between atoms: C2'_3  and  C1'_4 
REMARK    2  A    between atoms: C1'_4  and  C1_5 
ROOT
ATOM      1  C1  I4B d   1       1.146   1.115   1.482  0.00  0.00    -0.075 A 
ATOM      2  C2  I4B d   1       0.382   1.117   0.342  0.00  0.00     0.003 A 
ATOM      3  C3  I4B d   1       0.563   0.113  -0.640  0.00  0.00     0.002 A 
ATOM      4  C4  I4B d   1       1.547  -0.839  -0.465  0.00  0.00    -0.004 A 
ATOM      5  C5  I4B d   1       2.305  -0.853   0.703  0.00  0.00     0.002 A 
ATOM      6  C6  I4B d   1       2.095   0.123   1.688  0.00  0.00     0.003 A 
ENDROOT
BRANCH   1   7
ATOM      7  C1' I4B d   1       0.951   2.210   2.482  0.00  0.00     0.060 C 
BRANCH   7   8
ATOM      8  C2' I4B d   1       2.102   3.184   2.339  0.00  0.00    -0.013 C 
ATOM      9  C4' I4B d   1       1.677   4.426   1.602  0.00  0.00     0.013 C 
ATOM     10  C3' I4B d   1       2.603   3.514   3.713  0.00  0.00     0.013 C 
ENDBRANCH   7   8
ENDBRANCH   1   7
TORSDOF 2
ENDMDL
