MODEL 1
REMARK minimizedAffinity -1.47121644
REMARK minimizedRMSD -1
REMARK  2 active torsions:
REMARK  status: ('A' for Active; 'I' for Inactive)
REMARK    1  A    between atoms: C2'_3  and  C1'_4 
REMARK    2  A    between atoms: C1'_4  and  C1_5 
ROOT
ATOM      1  C1  I4B d   1       0.242   2.368   1.041  0.00  0.00    -0.075 A 
ATOM      2  C2  I4B d   1       0.510   1.806  -0.182  0.00  0.00     0.003 A 
ATOM      3  C3  I4B d   1       0.802   0.424  -0.283  0.00  0.00     0.002 A 
ATOM      4  C4  I4B d   1       0.866  -0.343   0.863  0.00  0.00    -0.004 A 
ATOM      5  C5  I4B d   1       0.571   0.224   2.100  0.00  0.00     0.002 A 
ATOM      6  C6  I4B d   1       0.245   1.586   2.188  0.00  0.00     0.003 A 
ENDROOT
BRANCH   1   7
ATOM      7  C1' I4B d   1      -0.031   3.837   1.115  0.00  0.00     0.060 C 
BRANCH   7   8
ATOM      8  C2' I4B d   1       0.471   4.470  -0.167  0.00  0.00    -0.013 C 
ATOM      9  C4' I4B d   1      -0.553   5.408  -0.750  0.00  0.00     0.013 C 
ATOM     10  C3' I4B d   1       1.750   5.189   0.142  0.00  0.00     0.013 C 
ENDBRANCH   7   8
ENDBRANCH   1   7
TORSDOF 2
ENDMDL
