MODEL 1
REMARK minimizedAffinity -3.01218224
REMARK minimizedRMSD -1
REMARK  2 active torsions:
REMARK  status: ('A' for Active; 'I' for Inactive)
REMARK    1  A    between atoms: C2'_3  and  C1'_4 
REMARK    2  A    between atoms: C1'_4  and  C1_5 
ROOT
ATOM      1  C1  I4B d   1       0.817   3.147   1.844  0.00  0.00    -0.075 A 
ATOM      2  C2  I4B d   1       1.917   3.463   2.601  0.00  0.00     0.003 A 
ATOM      3  C3  I4B d   1       2.717   4.582   2.262  0.00  0.00     0.002 A 
ATOM      4  C4  I4B d   1       2.412   5.321   1.138  0.00  0.00    -0.004 A 
ATOM      5  C5  I4B d   1       1.283   5.012   0.385  0.00  0.00     0.002 A 
ATOM      6  C6  I4B d   1       0.473   3.926   0.747  0.00  0.00     0.003 A 
ENDROOT
BRANCH   1   7
ATOM      7  C1' I4B d   1       0.013   1.940   2.210  0.00  0.00     0.060 C 
BRANCH   7   8
ATOM      8  C2' I4B d   1       0.604   0.748   1.485  0.00  0.00    -0.013 C 
ATOM      9  C4' I4B d   1       0.161  -0.547   2.114  0.00  0.00     0.013 C 
ATOM     10  C3' I4B d   1       0.182   0.825   0.048  0.00  0.00     0.013 C 
ENDBRANCH   7   8
ENDBRANCH   1   7
TORSDOF 2
ENDMDL
