MODEL 1
REMARK minimizedAffinity -1.9517374
REMARK minimizedRMSD -1
REMARK  2 active torsions:
REMARK  status: ('A' for Active; 'I' for Inactive)
REMARK    1  A    between atoms: C2'_3  and  C1'_4 
REMARK    2  A    between atoms: C1'_4  and  C1_5 
ROOT
ATOM      1  C1  I4B d   1       0.289   2.306   0.968  0.00  0.00    -0.075 A 
ATOM      2  C2  I4B d   1       0.543   1.193   0.206  0.00  0.00     0.003 A 
ATOM      3  C3  I4B d   1       0.818  -0.050   0.827  0.00  0.00     0.002 A 
ATOM      4  C4  I4B d   1       0.879  -0.122   2.204  0.00  0.00    -0.004 A 
ATOM      5  C5  I4B d   1       0.600   1.002   2.976  0.00  0.00     0.002 A 
ATOM      6  C6  I4B d   1       0.291   2.221   2.355  0.00  0.00     0.003 A 
ENDROOT
BRANCH   1   7
ATOM      7  C1' I4B d   1       0.035   3.609   0.279  0.00  0.00     0.060 C 
BRANCH   7   8
ATOM      8  C2' I4B d   1       1.350   4.101  -0.289  0.00  0.00    -0.013 C 
ATOM      9  C4' I4B d   1       1.231   5.515  -0.793  0.00  0.00     0.013 C 
ATOM     10  C3' I4B d   1       2.389   3.995   0.788  0.00  0.00     0.013 C 
ENDBRANCH   7   8
ENDBRANCH   1   7
TORSDOF 2
ENDMDL
