MODEL 1
REMARK minimizedAffinity 2.77715564
REMARK minimizedRMSD -1
REMARK  2 active torsions:
REMARK  status: ('A' for Active; 'I' for Inactive)
REMARK    1  A    between atoms: C2'_3  and  C1'_4 
REMARK    2  A    between atoms: C1'_4  and  C1_5 
ROOT
ATOM      1  C1  I4B d   1       0.992  -0.888   0.365  0.00  0.00    -0.075 A 
ATOM      2  C2  I4B d   1       1.033  -0.938   1.736  0.00  0.00     0.003 A 
ATOM      3  C3  I4B d   1       0.768   0.224   2.500  0.00  0.00     0.002 A 
ATOM      4  C4  I4B d   1       0.517   1.418   1.856  0.00  0.00    -0.004 A 
ATOM      5  C5  I4B d   1       0.453   1.462   0.466  0.00  0.00     0.002 A 
ATOM      6  C6  I4B d   1       0.679   0.300  -0.284  0.00  0.00     0.003 A 
ENDROOT
BRANCH   1   7
ATOM      7  C1' I4B d   1       1.309  -2.126  -0.412  0.00  0.00     0.060 C 
BRANCH   7   8
ATOM      8  C2' I4B d   1       0.161  -3.098  -0.231  0.00  0.00    -0.013 C 
ATOM      9  C4' I4B d   1      -0.834  -2.983  -1.356  0.00  0.00     0.013 C 
ATOM     10  C3' I4B d   1       0.734  -4.482  -0.154  0.00  0.00     0.013 C 
ENDBRANCH   7   8
ENDBRANCH   1   7
TORSDOF 2
ENDMDL
