MODEL 1
REMARK minimizedAffinity -3.07035112
REMARK minimizedRMSD -1
REMARK  1 active torsions:
REMARK  status: ('A' for Active; 'I' for Inactive)
REMARK    1  A    between atoms: C3_4  and  O_7 
ROOT
ATOM      1  C   UNL d   1      -4.900   5.720   5.615  0.00  0.00    -0.033 A 
ATOM      2  C1  UNL d   1      -3.615   5.631   5.075  0.00  0.00     0.039 A 
ATOM      3  C2  UNL d   1      -3.428   5.724   3.695  0.00  0.00    -0.080 A 
ATOM      4  C3  UNL d   1      -4.532   5.907   2.866  0.00  0.00     0.150 A 
ATOM      5  C4  UNL d   1      -5.814   6.000   3.397  0.00  0.00    -0.007 A 
ATOM      6  C5  UNL d   1      -5.999   5.906   4.776  0.00  0.00     0.039 A 
ENDROOT
BRANCH   4   7
ATOM      7  O   UNL d   1      -4.399   5.999   1.513  0.00  0.00    -0.526 OA
ATOM      8  H5  UNL d   1      -3.460   5.889   1.287  0.00  0.00     0.418 HD
ENDBRANCH   4   7
TORSDOF 1
ENDMDL
