MODEL 1
REMARK minimizedAffinity -1.2600069
REMARK minimizedRMSD -1
REMARK  1 active torsions:
REMARK  status: ('A' for Active; 'I' for Inactive)
REMARK    1  A    between atoms: C3_4  and  O_7 
ROOT
ATOM      1  C   UNL d   1      -5.150   5.353   5.973  0.00  0.00    -0.033 A 
ATOM      2  C1  UNL d   1      -6.000   5.120   4.890  0.00  0.00     0.039 A 
ATOM      3  C2  UNL d   1      -5.546   5.329   3.586  0.00  0.00    -0.080 A 
ATOM      4  C3  UNL d   1      -4.242   5.769   3.379  0.00  0.00     0.150 A 
ATOM      5  C4  UNL d   1      -3.388   6.000   4.453  0.00  0.00    -0.007 A 
ATOM      6  C5  UNL d   1      -3.844   5.792   5.754  0.00  0.00     0.039 A 
ENDROOT
BRANCH   4   7
ATOM      7  O   UNL d   1      -3.756   5.992   2.125  0.00  0.00    -0.526 OA
ATOM      8  H5  UNL d   1      -4.466   5.818   1.484  0.00  0.00     0.418 HD
ENDBRANCH   4   7
TORSDOF 1
ENDMDL
