MODEL 1
REMARK minimizedAffinity -1.66570139
REMARK minimizedRMSD -1
REMARK  1 active torsions:
REMARK  status: ('A' for Active; 'I' for Inactive)
REMARK    1  A    between atoms: C3_4  and  O_7 
ROOT
ATOM      1  C   UNL d   1       1.416  -2.993   4.864  0.00  0.00    -0.033 A 
ATOM      2  C1  UNL d   1       1.607  -4.156   5.613  0.00  0.00     0.039 A 
ATOM      3  C2  UNL d   1       0.509  -4.928   6.000  0.00  0.00    -0.080 A 
ATOM      4  C3  UNL d   1      -0.772  -4.526   5.632  0.00  0.00     0.150 A 
ATOM      5  C4  UNL d   1      -0.969  -3.371   4.883  0.00  0.00    -0.007 A 
ATOM      6  C5  UNL d   1       0.128  -2.601   4.498  0.00  0.00     0.039 A 
ENDROOT
BRANCH   4   7
ATOM      7  O   UNL d   1      -1.874  -5.244   5.990  0.00  0.00    -0.526 OA
ATOM      8  H5  UNL d   1      -1.587  -6.000   6.529  0.00  0.00     0.418 HD
ENDBRANCH   4   7
TORSDOF 1
ENDMDL
