MODEL 1
REMARK minimizedAffinity -2.07528114
REMARK minimizedRMSD -1
REMARK  1 active torsions:
REMARK  status: ('A' for Active; 'I' for Inactive)
REMARK    1  A    between atoms: C3_4  and  O_7 
ROOT
ATOM      1  C   UNL d   1      -4.713   5.941   1.646  0.00  0.00    -0.033 A 
ATOM      2  C1  UNL d   1      -5.942   5.860   2.304  0.00  0.00     0.039 A 
ATOM      3  C2  UNL d   1      -5.988   5.834   3.700  0.00  0.00    -0.080 A 
ATOM      4  C3  UNL d   1      -4.800   5.891   4.424  0.00  0.00     0.150 A 
ATOM      5  C4  UNL d   1      -3.573   5.975   3.774  0.00  0.00    -0.007 A 
ATOM      6  C5  UNL d   1      -3.529   6.000   2.381  0.00  0.00     0.039 A 
ENDROOT
BRANCH   4   7
ATOM      7  O   UNL d   1      -4.794   5.864   5.787  0.00  0.00    -0.526 OA
ATOM      8  H5  UNL d   1      -5.711   5.775   6.097  0.00  0.00     0.418 HD
ENDBRANCH   4   7
TORSDOF 1
ENDMDL
