MODEL 1
REMARK minimizedAffinity -2.62896419
REMARK minimizedRMSD -1
REMARK  1 active torsions:
REMARK  status: ('A' for Active; 'I' for Inactive)
REMARK    1  A    between atoms: C3_4  and  O_7 
ROOT
ATOM      1  C   UNL d   1      -4.575   5.980   1.255  0.00  0.00    -0.033 A 
ATOM      2  C1  UNL d   1      -5.822   5.963   1.882  0.00  0.00     0.039 A 
ATOM      3  C2  UNL d   1      -5.905   5.961   3.276  0.00  0.00    -0.080 A 
ATOM      4  C3  UNL d   1      -4.735   5.978   4.030  0.00  0.00     0.150 A 
ATOM      5  C4  UNL d   1      -3.489   6.000   3.412  0.00  0.00    -0.007 A 
ATOM      6  C5  UNL d   1      -3.408   6.000   2.020  0.00  0.00     0.039 A 
ENDROOT
BRANCH   4   7
ATOM      7  O   UNL d   1      -4.765   5.973   5.393  0.00  0.00    -0.526 OA
ATOM      8  H5  UNL d   1      -5.692   5.929   5.680  0.00  0.00     0.418 HD
ENDBRANCH   4   7
TORSDOF 1
ENDMDL
