MODEL 1
REMARK minimizedAffinity -1.46911776
REMARK minimizedRMSD -1
REMARK  1 active torsions:
REMARK  status: ('A' for Active; 'I' for Inactive)
REMARK    1  A    between atoms: C3_4  and  O_7 
ROOT
ATOM      1  C   UNL d   1      -4.812   5.953   5.105  0.00  0.00    -0.033 A 
ATOM      2  C1  UNL d   1      -3.543   5.991   4.524  0.00  0.00     0.039 A 
ATOM      3  C2  UNL d   1      -3.410   5.999   3.134  0.00  0.00    -0.080 A 
ATOM      4  C3  UNL d   1      -4.552   5.969   2.338  0.00  0.00     0.150 A 
ATOM      5  C4  UNL d   1      -5.819   5.935   2.911  0.00  0.00    -0.007 A 
ATOM      6  C5  UNL d   1      -5.950   5.926   4.299  0.00  0.00     0.039 A 
ENDROOT
BRANCH   4   7
ATOM      7  O   UNL d   1      -4.473   5.970   0.977  0.00  0.00    -0.526 OA
ATOM      8  H5  UNL d   1      -3.534   5.966   0.724  0.00  0.00     0.418 HD
ENDBRANCH   4   7
TORSDOF 1
ENDMDL
