MODEL 1
REMARK minimizedAffinity -1.99762094
REMARK minimizedRMSD -1
REMARK  1 active torsions:
REMARK  status: ('A' for Active; 'I' for Inactive)
REMARK    1  A    between atoms: C3_4  and  O_7 
ROOT
ATOM      1  C   UNL d   1      -5.002   5.872   1.809  0.00  0.00    -0.033 A 
ATOM      2  C1  UNL d   1      -3.659   5.966   2.182  0.00  0.00     0.039 A 
ATOM      3  C2  UNL d   1      -3.309   6.000   3.533  0.00  0.00    -0.080 A 
ATOM      4  C3  UNL d   1      -4.309   5.939   4.500  0.00  0.00     0.150 A 
ATOM      5  C4  UNL d   1      -5.648   5.842   4.135  0.00  0.00    -0.007 A 
ATOM      6  C5  UNL d   1      -5.996   5.809   2.785  0.00  0.00     0.039 A 
ENDROOT
BRANCH   4   7
ATOM      7  O   UNL d   1      -4.017   5.974   5.831  0.00  0.00    -0.526 OA
ATOM      8  H5  UNL d   1      -3.055   6.071   5.932  0.00  0.00     0.418 HD
ENDBRANCH   4   7
TORSDOF 1
ENDMDL
