MODEL 1
REMARK minimizedAffinity -3.11070442
REMARK minimizedRMSD -1
REMARK  1 active torsions:
REMARK  status: ('A' for Active; 'I' for Inactive)
REMARK    1  A    between atoms: C3_4  and  O_7 
ROOT
ATOM      1  C   UNL d   1      -4.834   5.834   5.039  0.00  0.00    -0.033 A 
ATOM      2  C1  UNL d   1      -5.920   5.663   4.179  0.00  0.00     0.039 A 
ATOM      3  C2  UNL d   1      -5.725   5.661   2.796  0.00  0.00    -0.080 A 
ATOM      4  C3  UNL d   1      -4.441   5.829   2.287  0.00  0.00     0.150 A 
ATOM      5  C4  UNL d   1      -3.353   5.996   3.138  0.00  0.00    -0.007 A 
ATOM      6  C5  UNL d   1      -3.550   5.999   4.518  0.00  0.00     0.039 A 
ENDROOT
BRANCH   4   7
ATOM      7  O   UNL d   1      -4.202   5.839   0.945  0.00  0.00    -0.526 OA
ATOM      8  H5  UNL d   1      -5.050   5.741   0.481  0.00  0.00     0.418 HD
ENDBRANCH   4   7
TORSDOF 1
ENDMDL
