MODEL 1
REMARK minimizedAffinity -2.56897187
REMARK minimizedRMSD -1
REMARK  1 active torsions:
REMARK  status: ('A' for Active; 'I' for Inactive)
REMARK    1  A    between atoms: C3_4  and  O_7 
ROOT
ATOM      1  C   UNL d   1      -5.115   5.939   5.853  0.00  0.00    -0.033 A 
ATOM      2  C1  UNL d   1      -3.734   5.978   5.652  0.00  0.00     0.039 A 
ATOM      3  C2  UNL d   1      -3.215   6.000   4.356  0.00  0.00    -0.080 A 
ATOM      4  C3  UNL d   1      -4.087   5.983   3.271  0.00  0.00     0.150 A 
ATOM      5  C4  UNL d   1      -5.464   5.948   3.463  0.00  0.00    -0.007 A 
ATOM      6  C5  UNL d   1      -5.980   5.926   4.758  0.00  0.00     0.039 A 
ENDROOT
BRANCH   4   7
ATOM      7  O   UNL d   1      -3.628   5.998   1.987  0.00  0.00    -0.526 OA
ATOM      8  H5  UNL d   1      -2.657   5.993   2.008  0.00  0.00     0.418 HD
ENDBRANCH   4   7
TORSDOF 1
ENDMDL
