MODEL 1
REMARK minimizedAffinity -5.36432457
REMARK minimizedRMSD -1
REMARK  2 active torsions:
REMARK  status: ('A' for Active; 'I' for Inactive)
REMARK    1  A    between atoms: C2'_3  and  C1'_4 
REMARK    2  A    between atoms: C1'_4  and  C1_5 
ROOT
ATOM      1  C1  I4B d   1       0.769  -1.191   2.132  0.00  0.00    -0.075 A 
ATOM      2  C2  I4B d   1       1.003  -0.962   0.799  0.00  0.00     0.003 A 
ATOM      3  C3  I4B d   1       0.041  -0.283   0.013  0.00  0.00     0.002 A 
ATOM      4  C4  I4B d   1      -1.154   0.102   0.584  0.00  0.00    -0.004 A 
ATOM      5  C5  I4B d   1      -1.380  -0.110   1.941  0.00  0.00     0.002 A 
ATOM      6  C6  I4B d   1      -0.408  -0.750   2.723  0.00  0.00     0.003 A 
ENDROOT
BRANCH   1   7
ATOM      7  C1' I4B d   1       1.792  -1.940   2.925  0.00  0.00     0.060 C 
BRANCH   7   8
ATOM      8  C2' I4B d   1       2.544  -2.851   1.976  0.00  0.00    -0.013 C 
ATOM      9  C4' I4B d   1       3.896  -3.219   2.529  0.00  0.00     0.013 C 
ATOM     10  C3' I4B d   1       1.704  -4.071   1.742  0.00  0.00     0.013 C 
ENDBRANCH   7   8
ENDBRANCH   1   7
TORSDOF 2
ENDMDL
