MODEL 1
REMARK minimizedAffinity 1.70946395
REMARK minimizedRMSD -1
REMARK  2 active torsions:
REMARK  status: ('A' for Active; 'I' for Inactive)
REMARK    1  A    between atoms: C2'_3  and  C1'_4 
REMARK    2  A    between atoms: C1'_4  and  C1_5 
ROOT
ATOM      1  C1  I4B d   1       4.272  -2.608   2.242  0.00  0.00    -0.075 A 
ATOM      2  C2  I4B d   1       2.915  -2.405   2.209  0.00  0.00     0.003 A 
ATOM      3  C3  I4B d   1       2.171  -2.749   1.055  0.00  0.00     0.002 A 
ATOM      4  C4  I4B d   1       2.826  -3.243  -0.055  0.00  0.00    -0.004 A 
ATOM      5  C5  I4B d   1       4.199  -3.469  -0.012  0.00  0.00     0.002 A 
ATOM      6  C6  I4B d   1       4.925  -3.162   1.148  0.00  0.00     0.003 A 
ENDROOT
BRANCH   1   7
ATOM      7  C1' I4B d   1       5.033  -2.203   3.465  0.00  0.00     0.060 C 
BRANCH   7   8
ATOM      8  C2' I4B d   1       4.324  -2.789   4.670  0.00  0.00    -0.013 C 
ATOM      9  C4' I4B d   1       4.364  -4.294   4.647  0.00  0.00     0.013 C 
ATOM     10  C3' I4B d   1       4.985  -2.248   5.903  0.00  0.00     0.013 C 
ENDBRANCH   7   8
ENDBRANCH   1   7
TORSDOF 2
ENDMDL
