MODEL 1
REMARK minimizedAffinity 12.4157934
REMARK minimizedRMSD -1
REMARK  2 active torsions:
REMARK  status: ('A' for Active; 'I' for Inactive)
REMARK    1  A    between atoms: C2'_3  and  C1'_4 
REMARK    2  A    between atoms: C1'_4  and  C1_5 
ROOT
ATOM      1  C1  I4B d   1       1.800   4.406   3.729  0.00  0.00    -0.075 A 
ATOM      2  C2  I4B d   1       1.262   4.413   4.992  0.00  0.00     0.003 A 
ATOM      3  C3  I4B d   1       1.822   5.236   6.000  0.00  0.00     0.002 A 
ATOM      4  C4  I4B d   1       2.941   5.991   5.717  0.00  0.00    -0.004 A 
ATOM      5  C5  I4B d   1       3.470   6.000   4.429  0.00  0.00     0.002 A 
ATOM      6  C6  I4B d   1       2.889   5.212   3.426  0.00  0.00     0.003 A 
ENDROOT
BRANCH   1   7
ATOM      7  C1' I4B d   1       1.204   3.500   2.698  0.00  0.00     0.060 C 
BRANCH   7   8
ATOM      8  C2' I4B d   1       0.330   4.340   1.788  0.00  0.00    -0.013 C 
ATOM      9  C4' I4B d   1       0.510   3.947   0.346  0.00  0.00     0.013 C 
ATOM     10  C3' I4B d   1      -1.094   4.164   2.224  0.00  0.00     0.013 C 
ENDBRANCH   7   8
ENDBRANCH   1   7
TORSDOF 2
ENDMDL
