MODEL 1
REMARK minimizedAffinity 1.0531714
REMARK minimizedRMSD -1
REMARK  2 active torsions:
REMARK  status: ('A' for Active; 'I' for Inactive)
REMARK    1  A    between atoms: C2'_3  and  C1'_4 
REMARK    2  A    between atoms: C1'_4  and  C1_5 
ROOT
ATOM      1  C1  I4B d   1       0.663  -1.855   1.618  0.00  0.00    -0.075 A 
ATOM      2  C2  I4B d   1      -0.471  -1.421   2.257  0.00  0.00     0.003 A 
ATOM      3  C3  I4B d   1      -1.481  -0.741   1.533  0.00  0.00     0.002 A 
ATOM      4  C4  I4B d   1      -1.294  -0.475   0.192  0.00  0.00    -0.004 A 
ATOM      5  C5  I4B d   1      -0.153  -0.936  -0.458  0.00  0.00     0.002 A 
ATOM      6  C6  I4B d   1       0.826  -1.642   0.256  0.00  0.00     0.003 A 
ENDROOT
BRANCH   1   7
ATOM      7  C1' I4B d   1       1.724  -2.540   2.420  0.00  0.00     0.060 C 
BRANCH   7   8
ATOM      8  C2' I4B d   1       2.527  -3.416   1.480  0.00  0.00    -0.013 C 
ATOM      9  C4' I4B d   1       3.726  -4.006   2.174  0.00  0.00     0.013 C 
ATOM     10  C3' I4B d   1       1.619  -4.491   0.959  0.00  0.00     0.013 C 
ENDBRANCH   7   8
ENDBRANCH   1   7
TORSDOF 2
ENDMDL
