MODEL 1
REMARK minimizedAffinity 3.6680572
REMARK minimizedRMSD -1
REMARK  2 active torsions:
REMARK  status: ('A' for Active; 'I' for Inactive)
REMARK    1  A    between atoms: C2'_3  and  C1'_4 
REMARK    2  A    between atoms: C1'_4  and  C1_5 
ROOT
ATOM      1  C1  I4B d   1       4.086  -4.444   2.311  0.00  0.00    -0.075 A 
ATOM      2  C2  I4B d   1       4.956  -4.975   1.392  0.00  0.00     0.003 A 
ATOM      3  C3  I4B d   1       4.766  -4.734   0.009  0.00  0.00     0.002 A 
ATOM      4  C4  I4B d   1       3.672  -4.004  -0.409  0.00  0.00    -0.004 A 
ATOM      5  C5  I4B d   1       2.804  -3.447   0.526  0.00  0.00     0.002 A 
ATOM      6  C6  I4B d   1       3.019  -3.658   1.896  0.00  0.00     0.003 A 
ENDROOT
BRANCH   1   7
ATOM      7  C1' I4B d   1       4.298  -4.746   3.761  0.00  0.00     0.060 C 
BRANCH   7   8
ATOM      8  C2' I4B d   1       4.409  -3.428   4.501  0.00  0.00    -0.013 C 
ATOM      9  C4' I4B d   1       4.103  -3.598   5.966  0.00  0.00     0.013 C 
ATOM     10  C3' I4B d   1       5.797  -2.898   4.295  0.00  0.00     0.013 C 
ENDBRANCH   7   8
ENDBRANCH   1   7
TORSDOF 2
ENDMDL
