MODEL 1
REMARK minimizedAffinity 4.45919847
REMARK minimizedRMSD -1
REMARK  2 active torsions:
REMARK  status: ('A' for Active; 'I' for Inactive)
REMARK    1  A    between atoms: C2'_3  and  C1'_4 
REMARK    2  A    between atoms: C1'_4  and  C1_5 
ROOT
ATOM      1  C1  I4B d   1      -4.288   0.182  -4.843  0.00  0.00    -0.075 A 
ATOM      2  C2  I4B d   1      -3.362   0.170  -5.857  0.00  0.00     0.003 A 
ATOM      3  C3  I4B d   1      -2.242  -0.694  -5.789  0.00  0.00     0.002 A 
ATOM      4  C4  I4B d   1      -2.061  -1.486  -4.673  0.00  0.00    -0.004 A 
ATOM      5  C5  I4B d   1      -3.013  -1.489  -3.657  0.00  0.00     0.002 A 
ATOM      6  C6  I4B d   1      -4.140  -0.659  -3.748  0.00  0.00     0.003 A 
ENDROOT
BRANCH   1   7
ATOM      7  C1' I4B d   1      -5.441   1.131  -4.932  0.00  0.00     0.060 C 
BRANCH   7   8
ATOM      8  C2' I4B d   1      -4.887   2.515  -5.205  0.00  0.00    -0.013 C 
ATOM      9  C4' I4B d   1      -5.992   3.534  -5.304  0.00  0.00     0.013 C 
ATOM     10  C3' I4B d   1      -3.932   2.857  -4.101  0.00  0.00     0.013 C 
ENDBRANCH   7   8
ENDBRANCH   1   7
TORSDOF 2
ENDMDL
