MODEL 1
REMARK minimizedAffinity 8.41371822
REMARK minimizedRMSD -1
REMARK  2 active torsions:
REMARK  status: ('A' for Active; 'I' for Inactive)
REMARK    1  A    between atoms: C2'_3  and  C1'_4 
REMARK    2  A    between atoms: C1'_4  and  C1_5 
ROOT
ATOM      1  C1  I4B d   1       2.244  -2.846   1.448  0.00  0.00    -0.075 A 
ATOM      2  C2  I4B d   1       3.070  -2.927   2.542  0.00  0.00     0.003 A 
ATOM      3  C3  I4B d   1       4.058  -3.940   2.615  0.00  0.00     0.002 A 
ATOM      4  C4  I4B d   1       4.150  -4.873   1.603  0.00  0.00    -0.004 A 
ATOM      5  C5  I4B d   1       3.327  -4.775   0.485  0.00  0.00     0.002 A 
ATOM      6  C6  I4B d   1       2.377  -3.748   0.401  0.00  0.00     0.003 A 
ENDROOT
BRANCH   1   7
ATOM      7  C1' I4B d   1       1.191  -1.784   1.419  0.00  0.00     0.060 C 
BRANCH   7   8
ATOM      8  C2' I4B d   1       0.369  -1.907   2.686  0.00  0.00    -0.013 C 
ATOM      9  C4' I4B d   1       0.054  -0.552   3.264  0.00  0.00     0.013 C 
ATOM     10  C3' I4B d   1      -0.885  -2.659   2.353  0.00  0.00     0.013 C 
ENDBRANCH   7   8
ENDBRANCH   1   7
TORSDOF 2
ENDMDL
