MODEL 1
REMARK minimizedAffinity -1.04449642
REMARK minimizedRMSD -1
REMARK  0 active torsions:
REMARK  status: ('A' for Active; 'I' for Inactive)
ROOT
ATOM      1  C2' OXE d   1       0.981  -3.359  -0.639  0.00  0.00     0.078 C 
ATOM      2  C1' OXE d   1       2.911  -1.423  -0.003  0.00  0.00     0.078 C 
ATOM      3  C1  OXE d   1       1.492  -1.175   0.444  0.00  0.00    -0.078 A 
ATOM      4  C2  OXE d   1       0.546  -2.105   0.088  0.00  0.00    -0.078 A 
ATOM      5  C3  OXE d   1      -0.768  -1.952   0.521  0.00  0.00     0.003 A 
ATOM      6  C4  OXE d   1      -1.164  -0.784   1.184  0.00  0.00    -0.002 A 
ATOM      7  C5  OXE d   1      -0.224   0.195   1.522  0.00  0.00    -0.002 A 
ATOM      8  C6  OXE d   1       1.114  -0.005   1.197  0.00  0.00     0.003 A 
ENDROOT
TORSDOF 0
ENDMDL
