MODEL 1
REMARK minimizedAffinity -0.648037791
REMARK minimizedRMSD -1
REMARK  0 active torsions:
REMARK  status: ('A' for Active; 'I' for Inactive)
ROOT
ATOM      1  C2' OXE d   1       5.437   6.000   0.751  0.00  0.00     0.078 C 
ATOM      2  C1' OXE d   1       3.554   4.169   1.741  0.00  0.00     0.078 C 
ATOM      3  C1  OXE d   1       4.132   3.912   0.371  0.00  0.00    -0.078 A 
ATOM      4  C2  OXE d   1       5.018   4.839  -0.125  0.00  0.00    -0.078 A 
ATOM      5  C3  OXE d   1       5.622   4.622  -1.360  0.00  0.00     0.003 A 
ATOM      6  C4  OXE d   1       5.221   3.551  -2.167  0.00  0.00    -0.002 A 
ATOM      7  C5  OXE d   1       4.291   2.617  -1.698  0.00  0.00    -0.002 A 
ATOM      8  C6  OXE d   1       3.770   2.760  -0.416  0.00  0.00     0.003 A 
ENDROOT
TORSDOF 0
ENDMDL
