MODEL 1
REMARK minimizedAffinity -3.31477308
REMARK minimizedRMSD -1
REMARK  0 active torsions:
REMARK  status: ('A' for Active; 'I' for Inactive)
ROOT
ATOM      1  C2' OXE d   1      -0.972   0.679   1.649  0.00  0.00     0.078 C 
ATOM      2  C1' OXE d   1      -1.321  -2.069   2.106  0.00  0.00     0.078 C 
ATOM      3  C1  OXE d   1      -0.113  -1.635   1.314  0.00  0.00    -0.078 A 
ATOM      4  C2  OXE d   1       0.025  -0.293   1.055  0.00  0.00    -0.078 A 
ATOM      5  C3  OXE d   1       1.150   0.166   0.376  0.00  0.00     0.003 A 
ATOM      6  C4  OXE d   1       2.062  -0.740  -0.178  0.00  0.00    -0.002 A 
ATOM      7  C5  OXE d   1       1.919  -2.114   0.040  0.00  0.00    -0.002 A 
ATOM      8  C6  OXE d   1       0.862  -2.575   0.818  0.00  0.00     0.003 A 
ENDROOT
TORSDOF 0
ENDMDL
