MODEL 1
REMARK minimizedAffinity -1.83167267
REMARK minimizedRMSD -1
REMARK  0 active torsions:
REMARK  status: ('A' for Active; 'I' for Inactive)
ROOT
ATOM      1  C2' OXE d   1       1.161  -3.042   0.150  0.00  0.00     0.078 C 
ATOM      2  C1' OXE d   1       2.111  -0.414   0.418  0.00  0.00     0.078 C 
ATOM      3  C1  OXE d   1       0.704  -0.704   0.876  0.00  0.00    -0.078 A 
ATOM      4  C2  OXE d   1       0.231  -1.982   0.698  0.00  0.00    -0.078 A 
ATOM      5  C3  OXE d   1      -1.041  -2.316   1.154  0.00  0.00     0.003 A 
ATOM      6  C4  OXE d   1      -1.899  -1.327   1.650  0.00  0.00    -0.002 A 
ATOM      7  C5  OXE d   1      -1.451  -0.010   1.803  0.00  0.00    -0.002 A 
ATOM      8  C6  OXE d   1      -0.141   0.308   1.461  0.00  0.00     0.003 A 
ENDROOT
TORSDOF 0
ENDMDL
