MODEL 1
REMARK minimizedAffinity 0.819091022
REMARK minimizedRMSD -1
REMARK  0 active torsions:
REMARK  status: ('A' for Active; 'I' for Inactive)
ROOT
ATOM      1  C2' OXE d   1       0.501  -3.599  -0.153  0.00  0.00     0.078 C 
ATOM      2  C1' OXE d   1       2.773  -1.970  -0.407  0.00  0.00     0.078 C 
ATOM      3  C1  OXE d   1       1.549  -1.375   0.244  0.00  0.00    -0.078 A 
ATOM      4  C2  OXE d   1       0.427  -2.164   0.322  0.00  0.00    -0.078 A 
ATOM      5  C3  OXE d   1      -0.711  -1.683   0.962  0.00  0.00     0.003 A 
ATOM      6  C4  OXE d   1      -0.775  -0.351   1.390  0.00  0.00    -0.002 A 
ATOM      7  C5  OXE d   1       0.344   0.482   1.284  0.00  0.00    -0.002 A 
ATOM      8  C6  OXE d   1       1.525  -0.026   0.753  0.00  0.00     0.003 A 
ENDROOT
TORSDOF 0
ENDMDL
