MODEL 1
REMARK minimizedAffinity -0.834196627
REMARK minimizedRMSD -1
REMARK  0 active torsions:
REMARK  status: ('A' for Active; 'I' for Inactive)
ROOT
ATOM      1  C2' OXE d   1       1.748   0.420   1.740  0.00  0.00     0.078 C 
ATOM      2  C1' OXE d   1       2.983  -1.486   0.090  0.00  0.00     0.078 C 
ATOM      3  C1  OXE d   1       1.495  -1.600   0.304  0.00  0.00    -0.078 A 
ATOM      4  C2  OXE d   1       0.906  -0.691   1.150  0.00  0.00    -0.078 A 
ATOM      5  C3  OXE d   1      -0.473  -0.718   1.340  0.00  0.00     0.003 A 
ATOM      6  C4  OXE d   1      -1.242  -1.755   0.799  0.00  0.00    -0.002 A 
ATOM      7  C5  OXE d   1      -0.656  -2.714  -0.034  0.00  0.00    -0.002 A 
ATOM      8  C6  OXE d   1       0.701  -2.626  -0.325  0.00  0.00     0.003 A 
ENDROOT
TORSDOF 0
ENDMDL
