MODEL 1
REMARK minimizedAffinity -2.2173996
REMARK minimizedRMSD -1
REMARK  0 active torsions:
REMARK  status: ('A' for Active; 'I' for Inactive)
ROOT
ATOM      1  C2' OXE d   1       1.835  -4.077  -0.332  0.00  0.00     0.078 C 
ATOM      2  C1' OXE d   1       3.541  -1.865  -0.052  0.00  0.00     0.078 C 
ATOM      3  C1  OXE d   1       2.067  -1.651   0.186  0.00  0.00    -0.078 A 
ATOM      4  C2  OXE d   1       1.234  -2.728   0.002  0.00  0.00    -0.078 A 
ATOM      5  C3  OXE d   1      -0.127  -2.599   0.262  0.00  0.00     0.003 A 
ATOM      6  C4  OXE d   1      -0.677  -1.346   0.560  0.00  0.00    -0.002 A 
ATOM      7  C5  OXE d   1       0.149  -0.227   0.714  0.00  0.00    -0.002 A 
ATOM      8  C6  OXE d   1       1.525  -0.372   0.572  0.00  0.00     0.003 A 
ENDROOT
TORSDOF 0
ENDMDL
