MODEL 1
REMARK minimizedAffinity -2.26468015
REMARK minimizedRMSD -1
REMARK  0 active torsions:
REMARK  status: ('A' for Active; 'I' for Inactive)
ROOT
ATOM      1  C2' OXE d   1       1.722  -3.505  -0.641  0.00  0.00     0.078 C 
ATOM      2  C1' OXE d   1       2.657  -0.879  -0.313  0.00  0.00     0.078 C 
ATOM      3  C1  OXE d   1       1.269  -1.199   0.184  0.00  0.00    -0.078 A 
ATOM      4  C2  OXE d   1       0.802  -2.474  -0.023  0.00  0.00    -0.078 A 
ATOM      5  C3  OXE d   1      -0.450  -2.838   0.465  0.00  0.00     0.003 A 
ATOM      6  C4  OXE d   1      -1.298  -1.875   1.026  0.00  0.00    -0.002 A 
ATOM      7  C5  OXE d   1      -0.857  -0.561   1.210  0.00  0.00    -0.002 A 
ATOM      8  C6  OXE d   1       0.436  -0.217   0.834  0.00  0.00     0.003 A 
ENDROOT
TORSDOF 0
ENDMDL
