MODEL 1
REMARK minimizedAffinity -1.79364383
REMARK minimizedRMSD -1
REMARK  0 active torsions:
REMARK  status: ('A' for Active; 'I' for Inactive)
ROOT
ATOM      1  C2' OXE d   1       1.594  -3.639  -0.906  0.00  0.00     0.078 C 
ATOM      2  C1' OXE d   1       3.355  -1.695   0.095  0.00  0.00     0.078 C 
ATOM      3  C1  OXE d   1       1.907  -1.613   0.509  0.00  0.00    -0.078 A 
ATOM      4  C2  OXE d   1       1.044  -2.540  -0.022  0.00  0.00    -0.078 A 
ATOM      5  C3  OXE d   1      -0.292  -2.543   0.370  0.00  0.00     0.003 A 
ATOM      6  C4  OXE d   1      -0.795  -1.518   1.180  0.00  0.00    -0.002 A 
ATOM      7  C5  OXE d   1       0.059  -0.541   1.701  0.00  0.00    -0.002 A 
ATOM      8  C6  OXE d   1       1.418  -0.598   1.410  0.00  0.00     0.003 A 
ENDROOT
TORSDOF 0
ENDMDL
