MODEL 1
REMARK minimizedAffinity -3.20237517
REMARK minimizedRMSD -1
REMARK  0 active torsions:
REMARK  status: ('A' for Active; 'I' for Inactive)
ROOT
ATOM      1  C2' OXE d   1      -0.185  -0.238   4.196  0.00  0.00     0.078 C 
ATOM      2  C1' OXE d   1       2.344  -0.572   3.025  0.00  0.00     0.078 C 
ATOM      3  C1  OXE d   1       1.132  -0.791   2.155  0.00  0.00    -0.078 A 
ATOM      4  C2  OXE d   1      -0.102  -0.671   2.748  0.00  0.00    -0.078 A 
ATOM      5  C3  OXE d   1      -1.253  -0.810   1.979  0.00  0.00     0.003 A 
ATOM      6  C4  OXE d   1      -1.168  -1.221   0.643  0.00  0.00    -0.002 A 
ATOM      7  C5  OXE d   1       0.079  -1.387   0.030  0.00  0.00    -0.002 A 
ATOM      8  C6  OXE d   1       1.236  -1.136   0.759  0.00  0.00     0.003 A 
ENDROOT
TORSDOF 0
ENDMDL
