MODEL 1
REMARK minimizedAffinity 3.3020494
REMARK minimizedRMSD -1
REMARK  0 active torsions:
REMARK  status: ('A' for Active; 'I' for Inactive)
ROOT
ATOM      1  C2' OXE d   1       0.127  -1.596  -1.274  0.00  0.00     0.078 C 
ATOM      2  C1' OXE d   1      -1.665  -0.815   0.740  0.00  0.00     0.078 C 
ATOM      3  C1  OXE d   1      -0.191  -0.643   1.006  0.00  0.00    -0.078 A 
ATOM      4  C2  OXE d   1       0.681  -1.071   0.033  0.00  0.00    -0.078 A 
ATOM      5  C3  OXE d   1       2.050  -0.886   0.204  0.00  0.00     0.003 A 
ATOM      6  C4  OXE d   1       2.554  -0.410   1.420  0.00  0.00    -0.002 A 
ATOM      7  C5  OXE d   1       1.685  -0.005   2.439  0.00  0.00    -0.002 A 
ATOM      8  C6  OXE d   1       0.312  -0.075   2.232  0.00  0.00     0.003 A 
ENDROOT
TORSDOF 0
ENDMDL
