MODEL 1
REMARK minimizedAffinity 3.62648678
REMARK minimizedRMSD -1
REMARK  0 active torsions:
REMARK  status: ('A' for Active; 'I' for Inactive)
ROOT
ATOM      1  C2' OXE d   1      -1.694  -0.808   0.439  0.00  0.00     0.078 C 
ATOM      2  C1' OXE d   1      -3.475   0.031  -1.562  0.00  0.00     0.078 C 
ATOM      3  C1  OXE d   1      -3.140   1.009  -0.463  0.00  0.00    -0.078 A 
ATOM      4  C2  OXE d   1      -2.304   0.574   0.537  0.00  0.00    -0.078 A 
ATOM      5  C3  OXE d   1      -1.920   1.453   1.545  0.00  0.00     0.003 A 
ATOM      6  C4  OXE d   1      -2.497   2.726   1.634  0.00  0.00    -0.002 A 
ATOM      7  C5  OXE d   1      -3.382   3.174   0.647  0.00  0.00    -0.002 A 
ATOM      8  C6  OXE d   1      -3.680   2.345  -0.429  0.00  0.00     0.003 A 
ENDROOT
TORSDOF 0
ENDMDL
