MODEL 1
REMARK minimizedAffinity 3.6365943
REMARK minimizedRMSD -1
REMARK  0 active torsions:
REMARK  status: ('A' for Active; 'I' for Inactive)
ROOT
ATOM      1  C2' OXE d   1       1.277  -2.596  -0.230  0.00  0.00     0.078 C 
ATOM      2  C1' OXE d   1       2.501  -0.704   1.444  0.00  0.00     0.078 C 
ATOM      3  C1  OXE d   1       0.994  -0.721   1.385  0.00  0.00    -0.078 A 
ATOM      4  C2  OXE d   1       0.405  -1.619   0.527  0.00  0.00    -0.078 A 
ATOM      5  C3  OXE d   1      -0.983  -1.713   0.475  0.00  0.00     0.003 A 
ATOM      6  C4  OXE d   1      -1.783  -0.799   1.172  0.00  0.00    -0.002 A 
ATOM      7  C5  OXE d   1      -1.202   0.150   2.020  0.00  0.00    -0.002 A 
ATOM      8  C6  OXE d   1       0.180   0.174   2.170  0.00  0.00     0.003 A 
ENDROOT
TORSDOF 0
ENDMDL
