MODEL 1
REMARK minimizedAffinity -1.74111581
REMARK minimizedRMSD -1
REMARK  0 active torsions:
REMARK  status: ('A' for Active; 'I' for Inactive)
ROOT
ATOM      1  C2' OXE d   1       3.781  -1.504  -0.126  0.00  0.00     0.078 C 
ATOM      2  C1' OXE d   1       2.471  -3.956  -0.519  0.00  0.00     0.078 C 
ATOM      3  C1  OXE d   1       1.641  -2.778  -0.074  0.00  0.00    -0.078 A 
ATOM      4  C2  OXE d   1       2.298  -1.594   0.161  0.00  0.00    -0.078 A 
ATOM      5  C3  OXE d   1       1.571  -0.462   0.519  0.00  0.00     0.003 A 
ATOM      6  C4  OXE d   1       0.201  -0.556   0.792  0.00  0.00    -0.002 A 
ATOM      7  C5  OXE d   1      -0.480  -1.762   0.597  0.00  0.00    -0.002 A 
ATOM      8  C6  OXE d   1       0.215  -2.869   0.124  0.00  0.00     0.003 A 
ENDROOT
TORSDOF 0
ENDMDL
