MODEL 1
REMARK minimizedAffinity -0.250918478
REMARK minimizedRMSD -1
REMARK  0 active torsions:
REMARK  status: ('A' for Active; 'I' for Inactive)
ROOT
ATOM      1  C2' OXE d   1       2.885  -2.592  -0.221  0.00  0.00     0.078 C 
ATOM      2  C1' OXE d   1       0.328  -3.464  -0.983  0.00  0.00     0.078 C 
ATOM      3  C1  OXE d   1       0.422  -2.237  -0.110  0.00  0.00    -0.078 A 
ATOM      4  C2  OXE d   1       1.675  -1.845   0.296  0.00  0.00    -0.078 A 
ATOM      5  C3  OXE d   1       1.823  -0.689   1.056  0.00  0.00     0.003 A 
ATOM      6  C4  OXE d   1       0.697  -0.009   1.539  0.00  0.00    -0.002 A 
ATOM      7  C5  OXE d   1      -0.589  -0.415   1.170  0.00  0.00    -0.002 A 
ATOM      8  C6  OXE d   1      -0.742  -1.499   0.313  0.00  0.00     0.003 A 
ENDROOT
TORSDOF 0
ENDMDL
