MODEL 1
REMARK minimizedAffinity 7.60923433
REMARK minimizedRMSD -1
REMARK  0 active torsions:
REMARK  status: ('A' for Active; 'I' for Inactive)
ROOT
ATOM      1  C2' OXE d   1       2.182   5.916  -0.388  0.00  0.00     0.078 C 
ATOM      2  C1' OXE d   1       1.612   5.897   2.360  0.00  0.00     0.078 C 
ATOM      3  C1  OXE d   1       3.061   5.941   1.943  0.00  0.00    -0.078 A 
ATOM      4  C2  OXE d   1       3.332   5.903   0.596  0.00  0.00    -0.078 A 
ATOM      5  C3  OXE d   1       4.649   5.997   0.155  0.00  0.00     0.003 A 
ATOM      6  C4  OXE d   1       5.707   5.974   1.072  0.00  0.00    -0.002 A 
ATOM      7  C5  OXE d   1       5.454   5.973   2.448  0.00  0.00    -0.002 A 
ATOM      8  C6  OXE d   1       4.139   5.999   2.899  0.00  0.00     0.003 A 
ENDROOT
TORSDOF 0
ENDMDL
