MODEL 1
REMARK minimizedAffinity 4.4197526
REMARK minimizedRMSD -1
REMARK  0 active torsions:
REMARK  status: ('A' for Active; 'I' for Inactive)
ROOT
ATOM      1  C2' OXE d   1       1.006  -0.339   1.824  0.00  0.00     0.078 C 
ATOM      2  C1' OXE d   1       2.543  -0.563  -0.515  0.00  0.00     0.078 C 
ATOM      3  C1  OXE d   1       1.271  -1.369  -0.429  0.00  0.00    -0.078 A 
ATOM      4  C2  OXE d   1       0.549  -1.289   0.738  0.00  0.00    -0.078 A 
ATOM      5  C3  OXE d   1      -0.660  -1.970   0.848  0.00  0.00     0.003 A 
ATOM      6  C4  OXE d   1      -1.070  -2.855  -0.156  0.00  0.00    -0.002 A 
ATOM      7  C5  OXE d   1      -0.329  -2.981  -1.337  0.00  0.00    -0.002 A 
ATOM      8  C6  OXE d   1       0.819  -2.215  -1.506  0.00  0.00     0.003 A 
ENDROOT
TORSDOF 0
ENDMDL
