MODEL 1
REMARK minimizedAffinity 2.5224514
REMARK minimizedRMSD -1
REMARK  0 active torsions:
REMARK  status: ('A' for Active; 'I' for Inactive)
ROOT
ATOM      1  C2' OXE d   1       0.746   6.000  -5.746  0.00  0.00     0.078 C 
ATOM      2  C1' OXE d   1      -0.009   5.237  -3.152  0.00  0.00     0.078 C 
ATOM      3  C1  OXE d   1       1.246   4.629  -3.727  0.00  0.00    -0.078 A 
ATOM      4  C2  OXE d   1       1.583   4.973  -5.014  0.00  0.00    -0.078 A 
ATOM      5  C3  OXE d   1       2.760   4.483  -5.573  0.00  0.00     0.003 A 
ATOM      6  C4  OXE d   1       3.523   3.526  -4.893  0.00  0.00    -0.002 A 
ATOM      7  C5  OXE d   1       3.176   3.133  -3.596  0.00  0.00    -0.002 A 
ATOM      8  C6  OXE d   1       2.067   3.705  -2.984  0.00  0.00     0.003 A 
ENDROOT
TORSDOF 0
ENDMDL
