MODEL 1
REMARK minimizedAffinity 3.9005723
REMARK minimizedRMSD -1
REMARK  0 active torsions:
REMARK  status: ('A' for Active; 'I' for Inactive)
ROOT
ATOM      1  O1  BZF d   1       1.570   2.718   3.595  0.00  0.00    -0.204 OA
ATOM      2  C2  BZF d   1       1.944   3.960   3.118  0.00  0.00     0.174 A 
ATOM      3  C3  BZF d   1       1.513   4.136   1.853  0.00  0.00    -0.012 A 
ATOM      4  C3A BZF d   1       0.748   2.965   1.549  0.00  0.00    -0.107 A 
ATOM      5  C4  BZF d   1       0.050   2.559   0.448  0.00  0.00     0.055 A 
ATOM      6  C5  BZF d   1      -0.525   1.328   0.448  0.00  0.00    -0.016 A 
ATOM      7  C6  BZF d   1      -0.419   0.476   1.528  0.00  0.00     0.022 A 
ATOM      8  C7  BZF d   1       0.259   0.837   2.645  0.00  0.00     0.029 A 
ATOM      9  C7A BZF d   1       0.814   2.094   2.661  0.00  0.00     0.058 A 
ENDROOT
TORSDOF 0
ENDMDL
