MODEL 1
REMARK minimizedAffinity 5.65253448
REMARK minimizedRMSD -1
REMARK  0 active torsions:
REMARK  status: ('A' for Active; 'I' for Inactive)
ROOT
ATOM      1  O1  BZF d   1       1.920  -1.103   3.494  0.00  0.00    -0.204 OA
ATOM      2  C2  BZF d   1       3.256  -1.082   3.145  0.00  0.00     0.174 A 
ATOM      3  C3  BZF d   1       3.402  -0.883   1.819  0.00  0.00    -0.012 A 
ATOM      4  C3A BZF d   1       2.076  -0.680   1.322  0.00  0.00    -0.107 A 
ATOM      5  C4  BZF d   1       1.568  -0.419   0.081  0.00  0.00     0.055 A 
ATOM      6  C5  BZF d   1       0.221  -0.349  -0.080  0.00  0.00    -0.016 A 
ATOM      7  C6  BZF d   1      -0.647  -0.540   0.975  0.00  0.00     0.022 A 
ATOM      8  C7  BZF d   1      -0.191  -0.796   2.225  0.00  0.00     0.029 A 
ATOM      9  C7A BZF d   1       1.171  -0.835   2.397  0.00  0.00     0.058 A 
ENDROOT
TORSDOF 0
ENDMDL
