MODEL 1
REMARK minimizedAffinity 8.698452
REMARK minimizedRMSD -1
REMARK  0 active torsions:
REMARK  status: ('A' for Active; 'I' for Inactive)
ROOT
ATOM      1  O1  BZF d   1       2.348  -1.416   0.616  0.00  0.00    -0.204 OA
ATOM      2  C2  BZF d   1       2.295  -1.347   1.995  0.00  0.00     0.174 A 
ATOM      3  C3  BZF d   1       1.284  -0.549   2.395  0.00  0.00    -0.012 A 
ATOM      4  C3A BZF d   1       0.610  -0.163   1.194  0.00  0.00    -0.107 A 
ATOM      5  C4  BZF d   1      -0.484   0.613   0.939  0.00  0.00     0.055 A 
ATOM      6  C5  BZF d   1      -0.840   0.850  -0.351  0.00  0.00    -0.016 A 
ATOM      7  C6  BZF d   1      -0.122   0.331  -1.409  0.00  0.00     0.022 A 
ATOM      8  C7  BZF d   1       0.967  -0.449  -1.206  0.00  0.00     0.029 A 
ATOM      9  C7A BZF d   1       1.310  -0.717   0.097  0.00  0.00     0.058 A 
ENDROOT
TORSDOF 0
ENDMDL
