MODEL 1
REMARK minimizedAffinity -3.3734808
REMARK minimizedRMSD -1
REMARK  0 active torsions:
REMARK  status: ('A' for Active; 'I' for Inactive)
ROOT
ATOM      1  O1  BZF d   1      -0.811  -0.032  -1.115  0.00  0.00    -0.204 OA
ATOM      2  C2  BZF d   1       0.189   0.466  -0.302  0.00  0.00     0.174 A 
ATOM      3  C3  BZF d   1       0.849  -0.536   0.313  0.00  0.00    -0.012 A 
ATOM      4  C3A BZF d   1       0.283  -1.739  -0.215  0.00  0.00    -0.107 A 
ATOM      5  C4  BZF d   1       0.532  -3.066  -0.004  0.00  0.00     0.055 A 
ATOM      6  C5  BZF d   1      -0.248  -3.991  -0.623  0.00  0.00    -0.016 A 
ATOM      7  C6  BZF d   1      -1.287  -3.625  -1.454  0.00  0.00     0.022 A 
ATOM      8  C7  BZF d   1      -1.569  -2.322  -1.698  0.00  0.00     0.029 A 
ATOM      9  C7A BZF d   1      -0.762  -1.386  -1.100  0.00  0.00     0.058 A 
ENDROOT
TORSDOF 0
ENDMDL
