MODEL 1
REMARK minimizedAffinity 5.57416248
REMARK minimizedRMSD -1
REMARK  0 active torsions:
REMARK  status: ('A' for Active; 'I' for Inactive)
ROOT
ATOM      1  O1  BZF d   1      -5.998  -3.422   4.444  0.00  0.00    -0.204 OA
ATOM      2  C2  BZF d   1      -5.954  -2.645   5.585  0.00  0.00     0.174 A 
ATOM      3  C3  BZF d   1      -5.846  -1.338   5.270  0.00  0.00    -0.012 A 
ATOM      4  C3A BZF d   1      -5.915  -1.288   3.841  0.00  0.00    -0.107 A 
ATOM      5  C4  BZF d   1      -5.880  -0.268   2.934  0.00  0.00     0.055 A 
ATOM      6  C5  BZF d   1      -5.896  -0.562   1.608  0.00  0.00    -0.016 A 
ATOM      7  C6  BZF d   1      -5.942  -1.864   1.154  0.00  0.00     0.022 A 
ATOM      8  C7  BZF d   1      -5.983  -2.910   2.015  0.00  0.00     0.029 A 
ATOM      9  C7A BZF d   1      -6.000  -2.614   3.357  0.00  0.00     0.058 A 
ENDROOT
TORSDOF 0
ENDMDL
