MODEL 1
REMARK minimizedAffinity 7.42679214
REMARK minimizedRMSD -1
REMARK  0 active torsions:
REMARK  status: ('A' for Active; 'I' for Inactive)
ROOT
ATOM      1  O1  BZF d   1       0.945   0.879   3.474  0.00  0.00    -0.204 OA
ATOM      2  C2  BZF d   1      -0.126   0.308   2.814  0.00  0.00     0.174 A 
ATOM      3  C3  BZF d   1      -0.613   1.147   1.877  0.00  0.00    -0.012 A 
ATOM      4  C3A BZF d   1       0.262   2.279   1.894  0.00  0.00    -0.107 A 
ATOM      5  C4  BZF d   1       0.309   3.440   1.177  0.00  0.00     0.055 A 
ATOM      6  C5  BZF d   1       1.248   4.372   1.489  0.00  0.00    -0.016 A 
ATOM      7  C6  BZF d   1       2.152   4.177   2.512  0.00  0.00     0.022 A 
ATOM      8  C7  BZF d   1       2.148   3.038   3.248  0.00  0.00     0.029 A 
ATOM      9  C7A BZF d   1       1.222   2.081   2.914  0.00  0.00     0.058 A 
ENDROOT
TORSDOF 0
ENDMDL
