MODEL 1
REMARK minimizedAffinity 4.89450502
REMARK minimizedRMSD -1
REMARK  0 active torsions:
REMARK  status: ('A' for Active; 'I' for Inactive)
ROOT
ATOM      1  O1  BZF d   1      -5.997  -3.068   2.034  0.00  0.00    -0.204 OA
ATOM      2  C2  BZF d   1      -5.979  -1.806   1.471  0.00  0.00     0.174 A 
ATOM      3  C3  BZF d   1      -5.999  -0.855   2.427  0.00  0.00    -0.012 A 
ATOM      4  C3A BZF d   1      -5.938  -1.567   3.667  0.00  0.00    -0.107 A 
ATOM      5  C4  BZF d   1      -5.909  -1.174   4.975  0.00  0.00     0.055 A 
ATOM      6  C5  BZF d   1      -5.924  -2.121   5.949  0.00  0.00    -0.016 A 
ATOM      7  C6  BZF d   1      -5.972  -3.467   5.653  0.00  0.00     0.022 A 
ATOM      8  C7  BZF d   1      -5.996  -3.905   4.371  0.00  0.00     0.029 A 
ATOM      9  C7A BZF d   1      -5.948  -2.952   3.383  0.00  0.00     0.058 A 
ENDROOT
TORSDOF 0
ENDMDL
