MODEL 1
REMARK minimizedAffinity 2.9685595
REMARK minimizedRMSD -1
REMARK  0 active torsions:
REMARK  status: ('A' for Active; 'I' for Inactive)
ROOT
ATOM      1  O1  BZF d   1       0.743   1.510   3.430  0.00  0.00    -0.204 OA
ATOM      2  C2  BZF d   1       0.465   0.171   3.233  0.00  0.00     0.174 A 
ATOM      3  C3  BZF d   1       0.093  -0.058   1.958  0.00  0.00    -0.012 A 
ATOM      4  C3A BZF d   1       0.230   1.202   1.293  0.00  0.00    -0.107 A 
ATOM      5  C4  BZF d   1       0.025   1.612   0.007  0.00  0.00     0.055 A 
ATOM      6  C5  BZF d   1       0.180   2.927  -0.299  0.00  0.00    -0.016 A 
ATOM      7  C6  BZF d   1       0.535   3.858   0.655  0.00  0.00     0.022 A 
ATOM      8  C7  BZF d   1       0.754   3.497   1.943  0.00  0.00     0.029 A 
ATOM      9  C7A BZF d   1       0.630   2.164   2.249  0.00  0.00     0.058 A 
ENDROOT
TORSDOF 0
ENDMDL
