MODEL 1
REMARK minimizedAffinity 8.92265034
REMARK minimizedRMSD -1
REMARK  0 active torsions:
REMARK  status: ('A' for Active; 'I' for Inactive)
ROOT
ATOM      1  O1  BZF d   1       0.242   3.935  -0.055  0.00  0.00    -0.204 OA
ATOM      2  C2  BZF d   1      -0.412   3.193  -1.019  0.00  0.00     0.174 A 
ATOM      3  C3  BZF d   1      -0.634   1.935  -0.585  0.00  0.00    -0.012 A 
ATOM      4  C3A BZF d   1      -0.167   1.916   0.767  0.00  0.00    -0.107 A 
ATOM      5  C4  BZF d   1      -0.132   0.953   1.735  0.00  0.00     0.055 A 
ATOM      6  C5  BZF d   1       0.456   1.235   2.927  0.00  0.00    -0.016 A 
ATOM      7  C6  BZF d   1       1.023   2.467   3.183  0.00  0.00     0.022 A 
ATOM      8  C7  BZF d   1       1.008   3.455   2.256  0.00  0.00     0.029 A 
ATOM      9  C7A BZF d   1       0.385   3.184   1.063  0.00  0.00     0.058 A 
ENDROOT
TORSDOF 0
ENDMDL
