MODEL 1
REMARK minimizedAffinity 9.27626896
REMARK minimizedRMSD -1
REMARK  0 active torsions:
REMARK  status: ('A' for Active; 'I' for Inactive)
ROOT
ATOM      1  O1  BZF d   1       1.125   1.414   4.034  0.00  0.00    -0.204 OA
ATOM      2  C2  BZF d   1       0.115   0.717   3.398  0.00  0.00     0.174 A 
ATOM      3  C3  BZF d   1      -0.320   1.390   2.313  0.00  0.00    -0.012 A 
ATOM      4  C3A BZF d   1       0.529   2.537   2.216  0.00  0.00    -0.107 A 
ATOM      5  C4  BZF d   1       0.603   3.578   1.335  0.00  0.00     0.055 A 
ATOM      6  C5  BZF d   1       1.499   4.574   1.563  0.00  0.00    -0.016 A 
ATOM      7  C6  BZF d   1       2.331   4.564   2.664  0.00  0.00     0.022 A 
ATOM      8  C7  BZF d   1       2.298   3.550   3.562  0.00  0.00     0.029 A 
ATOM      9  C7A BZF d   1       1.416   2.526   3.317  0.00  0.00     0.058 A 
ENDROOT
TORSDOF 0
ENDMDL
