MODEL 1
REMARK minimizedAffinity -1.91239715
REMARK minimizedRMSD -1
REMARK  0 active torsions:
REMARK  status: ('A' for Active; 'I' for Inactive)
ROOT
ATOM      1  O1  BZF d   1      -2.175  -1.774  -1.019  0.00  0.00    -0.204 OA
ATOM      2  C2  BZF d   1      -3.223  -1.549  -1.892  0.00  0.00     0.174 A 
ATOM      3  C3  BZF d   1      -3.272  -0.252  -2.256  0.00  0.00    -0.012 A 
ATOM      4  C3A BZF d   1      -2.132   0.356  -1.640  0.00  0.00    -0.107 A 
ATOM      5  C4  BZF d   1      -1.629   1.625  -1.642  0.00  0.00     0.055 A 
ATOM      6  C5  BZF d   1      -0.539   1.905  -0.879  0.00  0.00    -0.016 A 
ATOM      7  C6  BZF d   1       0.068   0.942  -0.100  0.00  0.00     0.022 A 
ATOM      8  C7  BZF d   1      -0.392  -0.332  -0.069  0.00  0.00     0.029 A 
ATOM      9  C7A BZF d   1      -1.473  -0.626  -0.864  0.00  0.00     0.058 A 
ENDROOT
TORSDOF 0
ENDMDL
