MODEL 1
REMARK minimizedAffinity 5.54424286
REMARK minimizedRMSD -1
REMARK  0 active torsions:
REMARK  status: ('A' for Active; 'I' for Inactive)
ROOT
ATOM      1  C   UNL d   1      -3.142  -2.745  -0.683  0.00  0.00     0.023 A 
ATOM      2  C1  UNL d   1      -3.779  -3.475  -1.687  0.00  0.00     0.003 A 
ATOM      3  C2  UNL d   1      -3.317  -3.404  -3.003  0.00  0.00     0.048 A 
ATOM      4  C3  UNL d   1      -2.217  -2.603  -3.308  0.00  0.00     0.023 A 
ATOM      5  C4  UNL d   1      -1.576  -1.872  -2.307  0.00  0.00     0.048 A 
ATOM      6  C5  UNL d   1      -2.041  -1.945  -0.992  0.00  0.00     0.003 A 
ATOM      7  I   UNL d   1      -1.528  -2.497  -5.266  0.00  0.00    -0.146 I 
ENDROOT
TORSDOF 0
ENDMDL
