MODEL 1
REMARK minimizedAffinity 3.27657866
REMARK minimizedRMSD -1
REMARK  0 active torsions:
REMARK  status: ('A' for Active; 'I' for Inactive)
ROOT
ATOM      1  C   UNL d   1       5.999   1.878   1.133  0.00  0.00     0.023 A 
ATOM      2  C1  UNL d   1       4.960   2.529   0.469  0.00  0.00     0.003 A 
ATOM      3  C2  UNL d   1       3.678   1.976   0.462  0.00  0.00     0.048 A 
ATOM      4  C3  UNL d   1       3.442   0.771   1.124  0.00  0.00     0.023 A 
ATOM      5  C4  UNL d   1       4.478   0.116   1.791  0.00  0.00     0.048 A 
ATOM      6  C5  UNL d   1       5.759   0.673   1.794  0.00  0.00     0.003 A 
ATOM      7  I   UNL d   1       1.535  -0.055   1.116  0.00  0.00    -0.146 I 
ENDROOT
TORSDOF 0
ENDMDL
