MODEL 1
REMARK minimizedAffinity 14.3991432
REMARK minimizedRMSD -1
REMARK  0 active torsions:
REMARK  status: ('A' for Active; 'I' for Inactive)
ROOT
ATOM      1  C   UNL d   1       3.864  -0.700   1.233  0.00  0.00     0.023 A 
ATOM      2  C1  UNL d   1       3.094  -0.753   2.395  0.00  0.00     0.003 A 
ATOM      3  C2  UNL d   1       3.704  -0.987   3.629  0.00  0.00     0.048 A 
ATOM      4  C3  UNL d   1       5.086  -1.166   3.694  0.00  0.00     0.023 A 
ATOM      5  C4  UNL d   1       5.861  -1.112   2.534  0.00  0.00     0.048 A 
ATOM      6  C5  UNL d   1       5.245  -0.879   1.302  0.00  0.00     0.003 A 
ATOM      7  I   UNL d   1       5.997  -1.514   5.529  0.00  0.00    -0.146 I 
ENDROOT
TORSDOF 0
ENDMDL
