MODEL 1
REMARK minimizedAffinity 1.1386981
REMARK minimizedRMSD -1
REMARK  0 active torsions:
REMARK  status: ('A' for Active; 'I' for Inactive)
ROOT
ATOM      1  C   UNL d   1       2.395   6.000  -5.628  0.00  0.00     0.023 A 
ATOM      2  C1  UNL d   1       1.690   4.974  -4.998  0.00  0.00     0.003 A 
ATOM      3  C2  UNL d   1       2.379   3.946  -4.352  0.00  0.00     0.048 A 
ATOM      4  C3  UNL d   1       3.773   3.950  -4.339  0.00  0.00     0.023 A 
ATOM      5  C4  UNL d   1       4.483   4.975  -4.967  0.00  0.00     0.048 A 
ATOM      6  C5  UNL d   1       3.790   6.000  -5.612  0.00  0.00     0.003 A 
ATOM      7  I   UNL d   1       4.802   2.421  -3.377  0.00  0.00    -0.146 I 
ENDROOT
TORSDOF 0
ENDMDL
