MODEL 1
REMARK minimizedAffinity 7.26214743
REMARK minimizedRMSD -1
REMARK  0 active torsions:
REMARK  status: ('A' for Active; 'I' for Inactive)
ROOT
ATOM      1  C   UNL d   1      -0.070   2.474   2.519  0.00  0.00     0.023 A 
ATOM      2  C1  UNL d   1       0.137   1.113   2.744  0.00  0.00     0.003 A 
ATOM      3  C2  UNL d   1       1.290   0.492   2.260  0.00  0.00     0.048 A 
ATOM      4  C3  UNL d   1       2.232   1.237   1.553  0.00  0.00     0.023 A 
ATOM      5  C4  UNL d   1       2.030   2.599   1.325  0.00  0.00     0.048 A 
ATOM      6  C5  UNL d   1       0.875   3.216   1.810  0.00  0.00     0.003 A 
ATOM      7  I   UNL d   1       3.949   0.314   0.832  0.00  0.00    -0.146 I 
ENDROOT
TORSDOF 0
ENDMDL
