MODEL 1
REMARK minimizedAffinity 7.88618612
REMARK minimizedRMSD -1
REMARK  0 active torsions:
REMARK  status: ('A' for Active; 'I' for Inactive)
ROOT
ATOM      1  C   UNL d   1       5.261   5.174   5.994  0.00  0.00     0.023 A 
ATOM      2  C1  UNL d   1       6.000   4.385   5.112  0.00  0.00     0.003 A 
ATOM      3  C2  UNL d   1       5.682   4.370   3.752  0.00  0.00     0.048 A 
ATOM      4  C3  UNL d   1       4.625   5.148   3.281  0.00  0.00     0.023 A 
ATOM      5  C4  UNL d   1       3.883   5.940   4.160  0.00  0.00     0.048 A 
ATOM      6  C5  UNL d   1       4.205   5.950   5.518  0.00  0.00     0.003 A 
ATOM      7  I   UNL d   1       4.149   5.128   1.258  0.00  0.00    -0.146 I 
ENDROOT
TORSDOF 0
ENDMDL
