MODEL 1
REMARK minimizedAffinity 18.069519
REMARK minimizedRMSD -1
REMARK  0 active torsions:
REMARK  status: ('A' for Active; 'I' for Inactive)
ROOT
ATOM      1  C   UNL d   1      -1.256  -2.443  -1.156  0.00  0.00     0.023 A 
ATOM      2  C1  UNL d   1      -0.127  -3.023  -1.736  0.00  0.00     0.003 A 
ATOM      3  C2  UNL d   1      -0.005  -3.076  -3.126  0.00  0.00     0.048 A 
ATOM      4  C3  UNL d   1      -1.015  -2.548  -3.930  0.00  0.00     0.023 A 
ATOM      5  C4  UNL d   1      -2.145  -1.966  -3.353  0.00  0.00     0.048 A 
ATOM      6  C5  UNL d   1      -2.264  -1.916  -1.963  0.00  0.00     0.003 A 
ATOM      7  I   UNL d   1      -0.835  -2.626  -5.999  0.00  0.00    -0.146 I 
ENDROOT
TORSDOF 0
ENDMDL
