MODEL 1
REMARK minimizedAffinity 15.1173401
REMARK minimizedRMSD -1
REMARK  0 active torsions:
REMARK  status: ('A' for Active; 'I' for Inactive)
ROOT
ATOM      1  C   UNL d   1       1.150   2.164   0.376  0.00  0.00     0.023 A 
ATOM      2  C1  UNL d   1       0.610   3.394   0.753  0.00  0.00     0.003 A 
ATOM      3  C2  UNL d   1       1.445   4.495   0.948  0.00  0.00     0.048 A 
ATOM      4  C3  UNL d   1       2.821   4.361   0.762  0.00  0.00     0.023 A 
ATOM      5  C4  UNL d   1       3.366   3.133   0.384  0.00  0.00     0.048 A 
ATOM      6  C5  UNL d   1       2.526   2.034   0.192  0.00  0.00     0.003 A 
ATOM      7  I   UNL d   1       4.067   5.999   1.050  0.00  0.00    -0.146 I 
ENDROOT
TORSDOF 0
ENDMDL
