MODEL 1
REMARK minimizedAffinity 5.84951305
REMARK minimizedRMSD -1
REMARK  0 active torsions:
REMARK  status: ('A' for Active; 'I' for Inactive)
ROOT
ATOM      1  C   UNL d   1       5.751   2.424  -3.627  0.00  0.00     0.023 A 
ATOM      2  C1  UNL d   1       4.532   2.406  -2.949  0.00  0.00     0.003 A 
ATOM      3  C2  UNL d   1       3.459   3.166  -3.419  0.00  0.00     0.048 A 
ATOM      4  C3  UNL d   1       3.612   3.942  -4.567  0.00  0.00     0.023 A 
ATOM      5  C4  UNL d   1       4.830   3.963  -5.249  0.00  0.00     0.048 A 
ATOM      6  C5  UNL d   1       5.900   3.202  -4.776  0.00  0.00     0.003 A 
ATOM      7  I   UNL d   1       2.017   5.075  -5.268  0.00  0.00    -0.146 I 
ENDROOT
TORSDOF 0
ENDMDL
