MODEL 1
REMARK minimizedAffinity -3.32644081
REMARK minimizedRMSD -1
REMARK  0 active torsions:
REMARK  status: ('A' for Active; 'I' for Inactive)
ROOT
ATOM      1  C   UNL d   1       5.534   2.977  -3.748  0.00  0.00     0.023 A 
ATOM      2  C1  UNL d   1       6.000   4.106  -4.423  0.00  0.00     0.003 A 
ATOM      3  C2  UNL d   1       5.100   4.955  -5.070  0.00  0.00     0.048 A 
ATOM      4  C3  UNL d   1       3.735   4.670  -5.037  0.00  0.00     0.023 A 
ATOM      5  C4  UNL d   1       3.265   3.542  -4.362  0.00  0.00     0.048 A 
ATOM      6  C5  UNL d   1       4.168   2.696  -3.718  0.00  0.00     0.003 A 
ATOM      7  I   UNL d   1       2.393   5.932  -6.000  0.00  0.00    -0.146 I 
ENDROOT
TORSDOF 0
ENDMDL
