MODEL 1
REMARK minimizedAffinity 7.69870949
REMARK minimizedRMSD -1
REMARK  0 active torsions:
REMARK  status: ('A' for Active; 'I' for Inactive)
ROOT
ATOM      1  C   UNL d   1       2.774   0.407   0.998  0.00  0.00     0.023 A 
ATOM      2  C1  UNL d   1       3.613   0.170  -0.091  0.00  0.00     0.003 A 
ATOM      3  C2  UNL d   1       3.407   0.847  -1.294  0.00  0.00     0.048 A 
ATOM      4  C3  UNL d   1       2.360   1.761  -1.403  0.00  0.00     0.023 A 
ATOM      5  C4  UNL d   1       1.517   2.002  -0.316  0.00  0.00     0.048 A 
ATOM      6  C5  UNL d   1       1.727   1.322   0.885  0.00  0.00     0.003 A 
ATOM      7  I   UNL d   1       2.051   2.770  -3.193  0.00  0.00    -0.146 I 
ENDROOT
TORSDOF 0
ENDMDL
