MODEL 1
REMARK minimizedAffinity 9.07449341
REMARK minimizedRMSD -1
REMARK  0 active torsions:
REMARK  status: ('A' for Active; 'I' for Inactive)
ROOT
ATOM      1  C   UNL d   1      -5.820   5.982   3.840  0.00  0.00     0.023 A 
ATOM      2  C1  UNL d   1      -5.874   5.291   2.629  0.00  0.00     0.003 A 
ATOM      3  C2  UNL d   1      -5.257   4.044   2.507  0.00  0.00     0.048 A 
ATOM      4  C3  UNL d   1      -4.589   3.494   3.600  0.00  0.00     0.023 A 
ATOM      5  C4  UNL d   1      -4.533   4.181   4.814  0.00  0.00     0.048 A 
ATOM      6  C5  UNL d   1      -5.151   5.428   4.931  0.00  0.00     0.003 A 
ATOM      7  I   UNL d   1      -3.670   1.638   3.422  0.00  0.00    -0.146 I 
ENDROOT
TORSDOF 0
ENDMDL
