MODEL 1
REMARK minimizedAffinity 6.88739014
REMARK minimizedRMSD -1
REMARK  0 active torsions:
REMARK  status: ('A' for Active; 'I' for Inactive)
ROOT
ATOM      1  C   UNL d   1       1.624   1.002   2.060  0.00  0.00     0.023 A 
ATOM      2  C1  UNL d   1       1.390   2.214   1.411  0.00  0.00     0.003 A 
ATOM      3  C2  UNL d   1       2.050   2.506   0.215  0.00  0.00     0.048 A 
ATOM      4  C3  UNL d   1       2.942   1.580  -0.325  0.00  0.00     0.023 A 
ATOM      5  C4  UNL d   1       3.179   0.366   0.321  0.00  0.00     0.048 A 
ATOM      6  C5  UNL d   1       2.517   0.079   1.516  0.00  0.00     0.003 A 
ATOM      7  I   UNL d   1       3.926   2.012  -2.105  0.00  0.00    -0.146 I 
ENDROOT
TORSDOF 0
ENDMDL
