MODEL 1
REMARK minimizedAffinity -0.372087717
REMARK minimizedRMSD -1
REMARK  0 active torsions:
REMARK  status: ('A' for Active; 'I' for Inactive)
ROOT
ATOM      1  C   UNL d   1       5.939   2.085  -4.690  0.00  0.00     0.023 A 
ATOM      2  C1  UNL d   1       4.718   1.707  -4.133  0.00  0.00     0.003 A 
ATOM      3  C2  UNL d   1       3.545   2.366  -4.507  0.00  0.00     0.048 A 
ATOM      4  C3  UNL d   1       3.600   3.402  -5.439  0.00  0.00     0.023 A 
ATOM      5  C4  UNL d   1       4.820   3.783  -6.000  0.00  0.00     0.048 A 
ATOM      6  C5  UNL d   1       5.991   3.121  -5.622  0.00  0.00     0.003 A 
ATOM      7  I   UNL d   1       1.856   4.384  -5.996  0.00  0.00    -0.146 I 
ENDROOT
TORSDOF 0
ENDMDL
