MODEL 1
REMARK minimizedAffinity 7.66102409
REMARK minimizedRMSD -1
REMARK  0 active torsions:
REMARK  status: ('A' for Active; 'I' for Inactive)
ROOT
ATOM      1  C   UNL d   1       5.672   2.167  -3.374  0.00  0.00     0.023 A 
ATOM      2  C1  UNL d   1       4.337   2.021  -2.995  0.00  0.00     0.003 A 
ATOM      3  C2  UNL d   1       3.327   2.628  -3.744  0.00  0.00     0.048 A 
ATOM      4  C3  UNL d   1       3.659   3.379  -4.871  0.00  0.00     0.023 A 
ATOM      5  C4  UNL d   1       4.993   3.528  -5.254  0.00  0.00     0.048 A 
ATOM      6  C5  UNL d   1       5.999   2.920  -4.502  0.00  0.00     0.003 A 
ATOM      7  I   UNL d   1       2.157   4.284  -5.988  0.00  0.00    -0.146 I 
ENDROOT
TORSDOF 0
ENDMDL
