MODEL 1
REMARK minimizedAffinity -1.28312171
REMARK minimizedRMSD -1
REMARK  0 active torsions:
REMARK  status: ('A' for Active; 'I' for Inactive)
ROOT
ATOM      1  C   UNL d   1       2.533   5.707  -5.940  0.00  0.00     0.023 A 
ATOM      2  C1  UNL d   1       1.911   4.528  -5.529  0.00  0.00     0.003 A 
ATOM      3  C2  UNL d   1       2.583   3.639  -4.689  0.00  0.00     0.048 A 
ATOM      4  C3  UNL d   1       3.877   3.935  -4.261  0.00  0.00     0.023 A 
ATOM      5  C4  UNL d   1       4.503   5.114  -4.669  0.00  0.00     0.048 A 
ATOM      6  C5  UNL d   1       3.827   6.000  -5.510  0.00  0.00     0.003 A 
ATOM      7  I   UNL d   1       4.879   2.613  -3.010  0.00  0.00    -0.146 I 
ENDROOT
TORSDOF 0
ENDMDL
