MODEL 1
REMARK minimizedAffinity 9.95217514
REMARK minimizedRMSD -1
REMARK  1 active torsions:
REMARK  status: ('A' for Active; 'I' for Inactive)
REMARK    1  A    between atoms: N_2  and  C1_3 
ROOT
ATOM      1  C1  UNL d   1      -3.691  -1.368   4.214  0.00  0.00     0.143 A 
ATOM      2  C2  UNL d   1      -3.577  -0.581   5.365  0.00  0.00    -0.057 A 
ATOM      3  C3  UNL d   1      -3.588   0.817   5.292  0.00  0.00     0.033 A 
ATOM      4  C4  UNL d   1      -3.684   1.455   4.060  0.00  0.00    -0.042 A 
ATOM      5  C5  UNL d   1      -3.773   0.693   2.900  0.00  0.00     0.033 A 
ATOM      6  C6  UNL d   1      -3.769  -0.703   2.980  0.00  0.00    -0.057 A 
ENDROOT
BRANCH   1   7
ATOM      7  N   UNL d   1      -3.588  -2.761   4.211  0.00  0.00    -0.732 N 
ATOM      8  C   UNL d   1      -3.890  -3.525   5.402  0.00  0.00     0.284 C 
ATOM      9  H3  UNL d   1      -3.941  -3.175   3.351  0.00  0.00     0.395 HD
ENDBRANCH   1   7
TORSDOF 1
ENDMDL
