MODEL 1
REMARK minimizedAffinity 9.29558277
REMARK minimizedRMSD -1
REMARK  1 active torsions:
REMARK  status: ('A' for Active; 'I' for Inactive)
REMARK    1  A    between atoms: N_2  and  C1_3 
ROOT
ATOM      1  C1  UNL d   1       3.023  -0.095  -0.431  0.00  0.00     0.143 A 
ATOM      2  C2  UNL d   1       1.975  -0.592  -1.213  0.00  0.00    -0.057 A 
ATOM      3  C3  UNL d   1       1.768  -1.969  -1.359  0.00  0.00     0.033 A 
ATOM      4  C4  UNL d   1       2.626  -2.876  -0.747  0.00  0.00    -0.042 A 
ATOM      5  C5  UNL d   1       3.690  -2.405   0.015  0.00  0.00     0.033 A 
ATOM      6  C6  UNL d   1       3.887  -1.029   0.162  0.00  0.00    -0.057 A 
ENDROOT
BRANCH   1   7
ATOM      7  N   UNL d   1       3.340   1.262  -0.326  0.00  0.00    -0.732 N 
ATOM      8  C   UNL d   1       4.659   1.680   0.095  0.00  0.00     0.284 C 
ATOM      9  H3  UNL d   1       2.954   1.811  -1.091  0.00  0.00     0.395 HD
ENDBRANCH   1   7
TORSDOF 1
ENDMDL
