MODEL 1
REMARK minimizedAffinity 6.56540966
REMARK minimizedRMSD -1
REMARK  1 active torsions:
REMARK  status: ('A' for Active; 'I' for Inactive)
REMARK    1  A    between atoms: N_2  and  C1_3 
ROOT
ATOM      1  C1  UNL d   1      -2.050   3.334  -4.992  0.00  0.00     0.143 A 
ATOM      2  C2  UNL d   1      -2.912   3.797  -5.992  0.00  0.00    -0.057 A 
ATOM      3  C3  UNL d   1      -3.373   5.119  -5.998  0.00  0.00     0.033 A 
ATOM      4  C4  UNL d   1      -3.001   5.996  -4.985  0.00  0.00    -0.042 A 
ATOM      5  C5  UNL d   1      -2.165   5.551  -3.967  0.00  0.00     0.033 A 
ATOM      6  C6  UNL d   1      -1.703   4.231  -3.970  0.00  0.00    -0.057 A 
ENDROOT
BRANCH   1   7
ATOM      7  N   UNL d   1      -1.636   2.004  -4.877  0.00  0.00    -0.732 N 
ATOM      8  C   UNL d   1      -1.878   1.261  -3.659  0.00  0.00     0.284 C 
ATOM      9  H3  UNL d   1      -1.798   1.471  -5.728  0.00  0.00     0.395 HD
ENDBRANCH   1   7
TORSDOF 1
ENDMDL
