MODEL 1
REMARK minimizedAffinity 11.6739788
REMARK minimizedRMSD -1
REMARK  1 active torsions:
REMARK  status: ('A' for Active; 'I' for Inactive)
REMARK    1  A    between atoms: N_2  and  C1_3 
ROOT
ATOM      1  C1  UNL d   1       3.925   0.845  -0.237  0.00  0.00     0.143 A 
ATOM      2  C2  UNL d   1       2.822   1.048  -1.073  0.00  0.00    -0.057 A 
ATOM      3  C3  UNL d   1       2.027  -0.022  -1.500  0.00  0.00     0.033 A 
ATOM      4  C4  UNL d   1       2.341  -1.323  -1.121  0.00  0.00    -0.042 A 
ATOM      5  C5  UNL d   1       3.448  -1.552  -0.311  0.00  0.00     0.033 A 
ATOM      6  C6  UNL d   1       4.233  -0.478   0.118  0.00  0.00    -0.057 A 
ENDROOT
BRANCH   1   7
ATOM      7  N   UNL d   1       4.812   1.856   0.141  0.00  0.00    -0.732 N 
ATOM      8  C   UNL d   1       5.962   2.173  -0.677  0.00  0.00     0.284 C 
ATOM      9  H3  UNL d   1       4.333   2.671   0.518  0.00  0.00     0.395 HD
ENDBRANCH   1   7
TORSDOF 1
ENDMDL
