MODEL 1
REMARK minimizedAffinity 12.0207281
REMARK minimizedRMSD -1
REMARK  1 active torsions:
REMARK  status: ('A' for Active; 'I' for Inactive)
REMARK    1  A    between atoms: N_2  and  C1_3 
ROOT
ATOM      1  C1  UNL d   1       2.747  -0.818  -1.181  0.00  0.00     0.143 A 
ATOM      2  C2  UNL d   1       3.162  -1.847  -0.329  0.00  0.00    -0.057 A 
ATOM      3  C3  UNL d   1       2.619  -3.134  -0.426  0.00  0.00     0.033 A 
ATOM      4  C4  UNL d   1       1.626  -3.408  -1.361  0.00  0.00    -0.042 A 
ATOM      5  C5  UNL d   1       1.180  -2.394  -2.201  0.00  0.00     0.033 A 
ATOM      6  C6  UNL d   1       1.731  -1.113  -2.104  0.00  0.00    -0.057 A 
ENDROOT
BRANCH   1   7
ATOM      7  N   UNL d   1       3.177   0.506  -1.069  0.00  0.00    -0.732 N 
ATOM      8  C   UNL d   1       3.847   0.964   0.130  0.00  0.00     0.284 C 
ATOM      9  H3  UNL d   1       3.585   0.856  -1.933  0.00  0.00     0.395 HD
ENDBRANCH   1   7
TORSDOF 1
ENDMDL
