MODEL 1
REMARK minimizedAffinity 5.27015829
REMARK minimizedRMSD -1
REMARK  1 active torsions:
REMARK  status: ('A' for Active; 'I' for Inactive)
REMARK    1  A    between atoms: N_2  and  C1_3 
ROOT
ATOM      1  C1  UNL d   1       3.702   0.196   0.026  0.00  0.00     0.143 A 
ATOM      2  C2  UNL d   1       2.610  -0.176  -0.765  0.00  0.00    -0.057 A 
ATOM      3  C3  UNL d   1       2.226  -1.517  -0.888  0.00  0.00     0.033 A 
ATOM      4  C4  UNL d   1       2.949  -2.515  -0.243  0.00  0.00    -0.042 A 
ATOM      5  C5  UNL d   1       4.054  -2.171   0.528  0.00  0.00     0.033 A 
ATOM      6  C6  UNL d   1       4.428  -0.829   0.652  0.00  0.00    -0.057 A 
ENDROOT
BRANCH   1   7
ATOM      7  N   UNL d   1       4.193   1.502   0.109  0.00  0.00    -0.732 N 
ATOM      8  C   UNL d   1       3.755   2.388   1.166  0.00  0.00     0.284 C 
ATOM      9  H3  UNL d   1       5.189   1.556  -0.093  0.00  0.00     0.395 HD
ENDBRANCH   1   7
TORSDOF 1
ENDMDL
