MODEL 1
REMARK minimizedAffinity 15.6914577
REMARK minimizedRMSD -1
REMARK  1 active torsions:
REMARK  status: ('A' for Active; 'I' for Inactive)
REMARK    1  A    between atoms: N_2  and  C1_3 
ROOT
ATOM      1  C1  UNL d   1      -1.279   0.543   2.289  0.00  0.00     0.143 A 
ATOM      2  C2  UNL d   1      -0.900   1.801   2.770  0.00  0.00    -0.057 A 
ATOM      3  C3  UNL d   1       0.265   1.969   3.527  0.00  0.00     0.033 A 
ATOM      4  C4  UNL d   1       1.061   0.872   3.842  0.00  0.00    -0.042 A 
ATOM      5  C5  UNL d   1       0.691  -0.392   3.396  0.00  0.00     0.033 A 
ATOM      6  C6  UNL d   1      -0.471  -0.552   2.635  0.00  0.00    -0.057 A 
ENDROOT
BRANCH   1   7
ATOM      7  N   UNL d   1      -2.477   0.296   1.615  0.00  0.00    -0.732 N 
ATOM      8  C   UNL d   1      -3.673  -0.066   2.345  0.00  0.00     0.284 C 
ATOM      9  H3  UNL d   1      -2.637   0.953   0.854  0.00  0.00     0.395 HD
ENDBRANCH   1   7
TORSDOF 1
ENDMDL
