MODEL 1
REMARK minimizedAffinity 4.35502672
REMARK minimizedRMSD -1
REMARK  1 active torsions:
REMARK  status: ('A' for Active; 'I' for Inactive)
REMARK    1  A    between atoms: N_2  and  C1_3 
ROOT
ATOM      1  C1  UNL d   1       4.066  -0.625   0.399  0.00  0.00     0.143 A 
ATOM      2  C2  UNL d   1       4.619  -1.884   0.656  0.00  0.00    -0.057 A 
ATOM      3  C3  UNL d   1       4.174  -3.025  -0.023  0.00  0.00     0.033 A 
ATOM      4  C4  UNL d   1       3.144  -2.930  -0.954  0.00  0.00    -0.042 A 
ATOM      5  C5  UNL d   1       2.563  -1.692  -1.207  0.00  0.00     0.033 A 
ATOM      6  C6  UNL d   1       3.017  -0.556  -0.530  0.00  0.00    -0.057 A 
ENDROOT
BRANCH   1   7
ATOM      7  N   UNL d   1       4.398   0.530   1.112  0.00  0.00    -0.732 N 
ATOM      8  C   UNL d   1       4.238   1.837   0.513  0.00  0.00     0.284 C 
ATOM      9  H3  UNL d   1       4.109   0.481   2.087  0.00  0.00     0.395 HD
ENDBRANCH   1   7
TORSDOF 1
ENDMDL
