MODEL 1
REMARK minimizedAffinity 12.102107
REMARK minimizedRMSD -1
REMARK  1 active torsions:
REMARK  status: ('A' for Active; 'I' for Inactive)
REMARK    1  A    between atoms: N_2  and  C1_3 
ROOT
ATOM      1  C1  UNL d   1      -5.036  -1.214   2.353  0.00  0.00     0.143 A 
ATOM      2  C2  UNL d   1      -4.498   0.046   2.073  0.00  0.00    -0.057 A 
ATOM      3  C3  UNL d   1      -3.617   0.673   2.963  0.00  0.00     0.033 A 
ATOM      4  C4  UNL d   1      -3.282   0.061   4.166  0.00  0.00    -0.042 A 
ATOM      5  C5  UNL d   1      -3.824  -1.181   4.476  0.00  0.00     0.033 A 
ATOM      6  C6  UNL d   1      -4.698  -1.805   3.580  0.00  0.00    -0.057 A 
ENDROOT
BRANCH   1   7
ATOM      7  N   UNL d   1      -5.994  -1.846   1.554  0.00  0.00    -0.732 N 
ATOM      8  C   UNL d   1      -6.000  -3.286   1.411  0.00  0.00     0.284 C 
ATOM      9  H3  UNL d   1      -6.918  -1.434   1.658  0.00  0.00     0.395 HD
ENDBRANCH   1   7
TORSDOF 1
ENDMDL
