MODEL 1
REMARK minimizedAffinity 11.5247202
REMARK minimizedRMSD -1
REMARK  1 active torsions:
REMARK  status: ('A' for Active; 'I' for Inactive)
REMARK    1  A    between atoms: N_2  and  C1_3 
ROOT
ATOM      1  C1  UNL d   1      -0.500   0.779   3.462  0.00  0.00     0.143 A 
ATOM      2  C2  UNL d   1      -0.554   0.205   2.188  0.00  0.00    -0.057 A 
ATOM      3  C3  UNL d   1      -1.717   0.270   1.411  0.00  0.00     0.033 A 
ATOM      4  C4  UNL d   1      -2.859   0.888   1.909  0.00  0.00    -0.042 A 
ATOM      5  C5  UNL d   1      -2.836   1.443   3.183  0.00  0.00     0.033 A 
ATOM      6  C6  UNL d   1      -1.670   1.380   3.951  0.00  0.00    -0.057 A 
ENDROOT
BRANCH   1   7
ATOM      7  N   UNL d   1       0.595   0.661   4.322  0.00  0.00    -0.732 N 
ATOM      8  C   UNL d   1       0.402   0.584   5.755  0.00  0.00     0.284 C 
ATOM      9  H3  UNL d   1       1.304   0.025   3.964  0.00  0.00     0.395 HD
ENDBRANCH   1   7
TORSDOF 1
ENDMDL
