MODEL 1
REMARK minimizedAffinity 7.03255033
REMARK minimizedRMSD -1
REMARK  1 active torsions:
REMARK  status: ('A' for Active; 'I' for Inactive)
REMARK    1  A    between atoms: N_2  and  C1_3 
ROOT
ATOM      1  C1  UNL d   1      -1.680   0.844   2.774  0.00  0.00     0.143 A 
ATOM      2  C2  UNL d   1      -1.211   2.074   3.250  0.00  0.00    -0.057 A 
ATOM      3  C3  UNL d   1       0.087   2.209   3.757  0.00  0.00     0.033 A 
ATOM      4  C4  UNL d   1       0.933   1.106   3.824  0.00  0.00    -0.042 A 
ATOM      5  C5  UNL d   1       0.479  -0.131   3.379  0.00  0.00     0.033 A 
ATOM      6  C6  UNL d   1      -0.816  -0.258   2.868  0.00  0.00    -0.057 A 
ENDROOT
BRANCH   1   7
ATOM      7  N   UNL d   1      -2.993   0.624   2.350  0.00  0.00    -0.732 N 
ATOM      8  C   UNL d   1      -4.108   0.908   3.227  0.00  0.00     0.284 C 
ATOM      9  H3  UNL d   1      -3.141   0.907   1.384  0.00  0.00     0.395 HD
ENDBRANCH   1   7
TORSDOF 1
ENDMDL
