MODEL 1
REMARK minimizedAffinity -4.48363209
REMARK minimizedRMSD -1
REMARK  1 active torsions:
REMARK  status: ('A' for Active; 'I' for Inactive)
REMARK    1  A    between atoms: C1_2  and  C2_3 
ROOT
ATOM      1  C2  UNL d   1      -0.654  -0.378   0.449  0.00  0.00    -0.077 A 
ATOM      2  C3  UNL d   1      -2.020  -0.685   0.511  0.00  0.00     0.002 A 
ATOM      3  C4  UNL d   1      -2.440  -1.992   0.770  0.00  0.00     0.002 A 
ATOM      4  C5  UNL d   1      -1.499  -3.000   0.973  0.00  0.00    -0.004 A 
ATOM      5  C6  UNL d   1      -0.138  -2.705   0.911  0.00  0.00     0.002 A 
ATOM      6  C7  UNL d   1       0.283  -1.400   0.651  0.00  0.00     0.002 A 
ENDROOT
BRANCH   1   7
ATOM      7  C1  UNL d   1      -0.199   1.039   0.219  0.00  0.00     0.055 C 
ATOM      8  C   UNL d   1       0.594   1.164  -1.074  0.00  0.00     0.019 C 
ENDBRANCH   1   7
TORSDOF 1
ENDMDL
