MODEL 1
REMARK minimizedAffinity -5.14791775
REMARK minimizedRMSD -1
REMARK  1 active torsions:
REMARK  status: ('A' for Active; 'I' for Inactive)
REMARK    1  A    between atoms: C1_2  and  C2_3 
ROOT
ATOM      1  C2  UNL d   1       2.479   0.276   1.178  0.00  0.00    -0.077 A 
ATOM      2  C3  UNL d   1       1.675   1.371   0.831  0.00  0.00     0.002 A 
ATOM      3  C4  UNL d   1       0.445   1.173   0.202  0.00  0.00     0.002 A 
ATOM      4  C5  UNL d   1       0.006  -0.118  -0.082  0.00  0.00    -0.004 A 
ATOM      5  C6  UNL d   1       0.799  -1.214   0.256  0.00  0.00     0.002 A 
ATOM      6  C7  UNL d   1       2.029  -1.018   0.884  0.00  0.00     0.002 A 
ENDROOT
BRANCH   1   7
ATOM      7  C1  UNL d   1       3.784   0.485   1.901  0.00  0.00     0.055 C 
ATOM      8  C   UNL d   1       4.815  -0.558   1.495  0.00  0.00     0.019 C 
ENDBRANCH   1   7
TORSDOF 1
ENDMDL
