MODEL 1
REMARK minimizedAffinity -1.42559063
REMARK minimizedRMSD -1
REMARK  1 active torsions:
REMARK  status: ('A' for Active; 'I' for Inactive)
REMARK    1  A    between atoms: C1_2  and  C2_3 
ROOT
ATOM      1  C2  UNL d   1      -1.538  -0.180   0.729  0.00  0.00    -0.077 A 
ATOM      2  C3  UNL d   1      -0.692  -1.125   0.133  0.00  0.00     0.002 A 
ATOM      3  C4  UNL d   1      -0.293  -2.261   0.841  0.00  0.00     0.002 A 
ATOM      4  C5  UNL d   1      -0.739  -2.464   2.145  0.00  0.00    -0.004 A 
ATOM      5  C6  UNL d   1      -1.580  -1.528   2.747  0.00  0.00     0.002 A 
ATOM      6  C7  UNL d   1      -1.978  -0.392   2.041  0.00  0.00     0.002 A 
ENDROOT
BRANCH   1   7
ATOM      7  C1  UNL d   1      -2.009   1.021  -0.050  0.00  0.00     0.055 C 
ATOM      8  C   UNL d   1      -3.419   0.815  -0.585  0.00  0.00     0.019 C 
ENDBRANCH   1   7
TORSDOF 1
ENDMDL
