MODEL 1
REMARK minimizedAffinity 3.5104444
REMARK minimizedRMSD -1
REMARK  1 active torsions:
REMARK  status: ('A' for Active; 'I' for Inactive)
REMARK    1  A    between atoms: C1_2  and  C2_3 
ROOT
ATOM      1  C2  UNL d   1      -1.892   3.941  -3.398  0.00  0.00    -0.077 A 
ATOM      2  C3  UNL d   1      -2.910   4.377  -2.538  0.00  0.00     0.002 A 
ATOM      3  C4  UNL d   1      -3.472   3.501  -1.609  0.00  0.00     0.002 A 
ATOM      4  C5  UNL d   1      -3.021   2.185  -1.527  0.00  0.00    -0.004 A 
ATOM      5  C6  UNL d   1      -2.010   1.741  -2.379  0.00  0.00     0.002 A 
ATOM      6  C7  UNL d   1      -1.448   2.616  -3.310  0.00  0.00     0.002 A 
ENDROOT
BRANCH   1   7
ATOM      7  C1  UNL d   1      -1.250   4.899  -4.368  0.00  0.00     0.055 C 
ATOM      8  C   UNL d   1       0.255   4.978  -4.153  0.00  0.00     0.019 C 
ENDBRANCH   1   7
TORSDOF 1
ENDMDL
