MODEL 1
REMARK minimizedAffinity 5.26125813
REMARK minimizedRMSD -1
REMARK  1 active torsions:
REMARK  status: ('A' for Active; 'I' for Inactive)
REMARK    1  A    between atoms: C1_2  and  C2_3 
ROOT
ATOM      1  C2  UNL d   1       0.555  -2.099   1.647  0.00  0.00    -0.077 A 
ATOM      2  C3  UNL d   1       1.435  -1.845   0.585  0.00  0.00     0.002 A 
ATOM      3  C4  UNL d   1       1.294  -0.692  -0.188  0.00  0.00     0.002 A 
ATOM      4  C5  UNL d   1       0.278   0.219   0.094  0.00  0.00    -0.004 A 
ATOM      5  C6  UNL d   1      -0.603  -0.025   1.147  0.00  0.00     0.002 A 
ATOM      6  C7  UNL d   1      -0.465  -1.178   1.920  0.00  0.00     0.002 A 
ENDROOT
BRANCH   1   7
ATOM      7  C1  UNL d   1       0.735  -3.318   2.514  0.00  0.00     0.055 C 
ATOM      8  C   UNL d   1       0.776  -2.947   3.989  0.00  0.00     0.019 C 
ENDBRANCH   1   7
TORSDOF 1
ENDMDL
