MODEL 1
REMARK minimizedAffinity 3.45921993
REMARK minimizedRMSD -1
REMARK  1 active torsions:
REMARK  status: ('A' for Active; 'I' for Inactive)
REMARK    1  A    between atoms: C1_2  and  C2_3 
ROOT
ATOM      1  C2  UNL d   1       0.654  -2.260   2.307  0.00  0.00    -0.077 A 
ATOM      2  C3  UNL d   1      -0.633  -2.257   2.864  0.00  0.00     0.002 A 
ATOM      3  C4  UNL d   1      -0.880  -2.909   4.074  0.00  0.00     0.002 A 
ATOM      4  C5  UNL d   1       0.154  -3.564   4.738  0.00  0.00    -0.004 A 
ATOM      5  C6  UNL d   1       1.437  -3.574   4.192  0.00  0.00     0.002 A 
ATOM      6  C7  UNL d   1       1.686  -2.924   2.982  0.00  0.00     0.002 A 
ENDROOT
BRANCH   1   7
ATOM      7  C1  UNL d   1       0.934  -1.515   1.028  0.00  0.00     0.055 C 
ATOM      8  C   UNL d   1      -0.074  -0.397   0.806  0.00  0.00     0.019 C 
ENDBRANCH   1   7
TORSDOF 1
ENDMDL
