MODEL 1
REMARK minimizedAffinity 3.95048451
REMARK minimizedRMSD -1
REMARK  1 active torsions:
REMARK  status: ('A' for Active; 'I' for Inactive)
REMARK    1  A    between atoms: C1_2  and  C2_3 
ROOT
ATOM      1  C2  UNL d   1      -0.050  -1.799   1.844  0.00  0.00    -0.077 A 
ATOM      2  C3  UNL d   1      -0.917  -1.383   2.865  0.00  0.00     0.002 A 
ATOM      3  C4  UNL d   1      -0.879  -1.998   4.118  0.00  0.00     0.002 A 
ATOM      4  C5  UNL d   1       0.027  -3.027   4.363  0.00  0.00    -0.004 A 
ATOM      5  C6  UNL d   1       0.892  -3.449   3.354  0.00  0.00     0.002 A 
ATOM      6  C7  UNL d   1       0.854  -2.837   2.101  0.00  0.00     0.002 A 
ENDROOT
BRANCH   1   7
ATOM      7  C1  UNL d   1      -0.056  -1.104   0.507  0.00  0.00     0.055 C 
ATOM      8  C   UNL d   1      -0.110   0.408   0.669  0.00  0.00     0.019 C 
ENDBRANCH   1   7
TORSDOF 1
ENDMDL
