MODEL 1
REMARK minimizedAffinity 1.40529025
REMARK minimizedRMSD -1
REMARK  1 active torsions:
REMARK  status: ('A' for Active; 'I' for Inactive)
REMARK    1  A    between atoms: N_2  and  C1_3 
ROOT
ATOM      1  C1  UNL d   1      -5.876   1.411   2.965  0.00  0.00     0.143 A 
ATOM      2  C2  UNL d   1      -5.999   2.766   2.642  0.00  0.00    -0.057 A 
ATOM      3  C3  UNL d   1      -5.968   3.755   3.633  0.00  0.00     0.033 A 
ATOM      4  C4  UNL d   1      -5.843   3.401   4.972  0.00  0.00    -0.042 A 
ATOM      5  C5  UNL d   1      -5.744   2.059   5.319  0.00  0.00     0.033 A 
ATOM      6  C6  UNL d   1      -5.769   1.077   4.324  0.00  0.00    -0.057 A 
ENDROOT
BRANCH   1   7
ATOM      7  N   UNL d   1      -5.997   0.375   2.035  0.00  0.00    -0.732 N 
ATOM      8  C   UNL d   1      -4.915  -0.564   1.832  0.00  0.00     0.284 C 
ATOM      9  H3  UNL d   1      -6.921  -0.051   2.047  0.00  0.00     0.395 HD
ENDBRANCH   1   7
TORSDOF 1
ENDMDL
