MODEL 1
REMARK minimizedAffinity 5.60173368
REMARK minimizedRMSD -1
REMARK  1 active torsions:
REMARK  status: ('A' for Active; 'I' for Inactive)
REMARK    1  A    between atoms: N_2  and  C1_3 
ROOT
ATOM      1  C1  UNL d   1      -5.940   3.619   4.836  0.00  0.00     0.143 A 
ATOM      2  C2  UNL d   1      -5.999   4.146   3.541  0.00  0.00    -0.057 A 
ATOM      3  C3  UNL d   1      -5.840   3.328   2.416  0.00  0.00     0.033 A 
ATOM      4  C4  UNL d   1      -5.589   1.969   2.567  0.00  0.00    -0.042 A 
ATOM      5  C5  UNL d   1      -5.500   1.427   3.845  0.00  0.00     0.033 A 
ATOM      6  C6  UNL d   1      -5.667   2.248   4.964  0.00  0.00    -0.057 A 
ENDROOT
BRANCH   1   7
ATOM      7  N   UNL d   1      -5.992   4.396   5.995  0.00  0.00    -0.732 N 
ATOM      8  C   UNL d   1      -5.882   5.838   5.922  0.00  0.00     0.284 C 
ATOM      9  H3  UNL d   1      -6.694   4.066   6.653  0.00  0.00     0.395 HD
ENDBRANCH   1   7
TORSDOF 1
ENDMDL
