MODEL 1
REMARK minimizedAffinity 4.64384174
REMARK minimizedRMSD -1
REMARK  1 active torsions:
REMARK  status: ('A' for Active; 'I' for Inactive)
REMARK    1  A    between atoms: N_2  and  C1_3 
ROOT
ATOM      1  C1  UNL d   1       3.240   1.528   0.680  0.00  0.00     0.143 A 
ATOM      2  C2  UNL d   1       2.181   1.434  -0.229  0.00  0.00    -0.057 A 
ATOM      3  C3  UNL d   1       1.145   0.510  -0.044  0.00  0.00     0.033 A 
ATOM      4  C4  UNL d   1       1.166  -0.359   1.042  0.00  0.00    -0.042 A 
ATOM      5  C5  UNL d   1       2.222  -0.301   1.944  0.00  0.00     0.033 A 
ATOM      6  C6  UNL d   1       3.250   0.628   1.757  0.00  0.00    -0.057 A 
ENDROOT
BRANCH   1   7
ATOM      7  N   UNL d   1       4.349   2.358   0.499  0.00  0.00    -0.732 N 
ATOM      8  C   UNL d   1       4.259   3.778   0.764  0.00  0.00     0.284 C 
ATOM      9  H3  UNL d   1       5.213   1.928   0.823  0.00  0.00     0.395 HD
ENDBRANCH   1   7
TORSDOF 1
ENDMDL
