MODEL 1
REMARK minimizedAffinity 8.5624094
REMARK minimizedRMSD -1
REMARK  1 active torsions:
REMARK  status: ('A' for Active; 'I' for Inactive)
REMARK    1  A    between atoms: N_2  and  C1_3 
ROOT
ATOM      1  C1  UNL d   1      -0.361  -1.375   1.540  0.00  0.00     0.143 A 
ATOM      2  C2  UNL d   1      -1.139  -0.272   1.907  0.00  0.00    -0.057 A 
ATOM      3  C3  UNL d   1      -0.664   1.036   1.751  0.00  0.00     0.033 A 
ATOM      4  C4  UNL d   1       0.613   1.264   1.249  0.00  0.00    -0.042 A 
ATOM      5  C5  UNL d   1       1.414   0.182   0.901  0.00  0.00     0.033 A 
ATOM      6  C6  UNL d   1       0.932  -1.122   1.053  0.00  0.00    -0.057 A 
ENDROOT
BRANCH   1   7
ATOM      7  N   UNL d   1      -0.737  -2.701   1.763  0.00  0.00    -0.732 N 
ATOM      8  C   UNL d   1      -1.125  -3.553   0.659  0.00  0.00     0.284 C 
ATOM      9  H3  UNL d   1      -0.151  -3.161   2.456  0.00  0.00     0.395 HD
ENDBRANCH   1   7
TORSDOF 1
ENDMDL
