MODEL 1
REMARK minimizedAffinity 3.38164186
REMARK minimizedRMSD -1
REMARK  1 active torsions:
REMARK  status: ('A' for Active; 'I' for Inactive)
REMARK    1  A    between atoms: N_2  and  C1_3 
ROOT
ATOM      1  C1  UNL d   1      -2.429  -0.157   0.492  0.00  0.00     0.143 A 
ATOM      2  C2  UNL d   1      -3.721   0.310   0.755  0.00  0.00    -0.057 A 
ATOM      3  C3  UNL d   1      -3.942   1.379   1.632  0.00  0.00     0.033 A 
ATOM      4  C4  UNL d   1      -2.872   1.983   2.285  0.00  0.00    -0.042 A 
ATOM      5  C5  UNL d   1      -1.581   1.519   2.057  0.00  0.00     0.033 A 
ATOM      6  C6  UNL d   1      -1.367   0.455   1.176  0.00  0.00    -0.057 A 
ENDROOT
BRANCH   1   7
ATOM      7  N   UNL d   1      -2.152  -1.280  -0.293  0.00  0.00    -0.732 N 
ATOM      8  C   UNL d   1      -1.672  -2.503   0.313  0.00  0.00     0.284 C 
ATOM      9  H3  UNL d   1      -2.845  -1.422  -1.025  0.00  0.00     0.395 HD
ENDBRANCH   1   7
TORSDOF 1
ENDMDL
