MODEL 1
REMARK minimizedAffinity 6.4452076
REMARK minimizedRMSD -1
REMARK  1 active torsions:
REMARK  status: ('A' for Active; 'I' for Inactive)
REMARK    1  A    between atoms: N_2  and  C1_3 
ROOT
ATOM      1  C1  UNL d   1      -1.726   1.552   2.478  0.00  0.00     0.143 A 
ATOM      2  C2  UNL d   1      -2.150   1.036   1.248  0.00  0.00    -0.057 A 
ATOM      3  C3  UNL d   1      -1.296   0.266   0.451  0.00  0.00     0.033 A 
ATOM      4  C4  UNL d   1       0.012   0.020   0.857  0.00  0.00    -0.042 A 
ATOM      5  C5  UNL d   1       0.463   0.544   2.063  0.00  0.00     0.033 A 
ATOM      6  C6  UNL d   1      -0.397   1.307   2.859  0.00  0.00    -0.057 A 
ENDROOT
BRANCH   1   7
ATOM      7  N   UNL d   1      -2.496   2.407   3.270  0.00  0.00    -0.732 N 
ATOM      8  C   UNL d   1      -3.568   1.886   4.090  0.00  0.00     0.284 C 
ATOM      9  H3  UNL d   1      -1.936   3.125   3.724  0.00  0.00     0.395 HD
ENDBRANCH   1   7
TORSDOF 1
ENDMDL
