MODEL 1
REMARK minimizedAffinity 0.453624487
REMARK minimizedRMSD -1
REMARK  1 active torsions:
REMARK  status: ('A' for Active; 'I' for Inactive)
REMARK    1  A    between atoms: N_2  and  C1_3 
ROOT
ATOM      1  C1  UNL d   1      -1.977   0.419   1.095  0.00  0.00     0.143 A 
ATOM      2  C2  UNL d   1      -2.718   1.122   2.051  0.00  0.00    -0.057 A 
ATOM      3  C3  UNL d   1      -2.088   1.908   3.024  0.00  0.00     0.033 A 
ATOM      4  C4  UNL d   1      -0.700   1.981   3.075  0.00  0.00    -0.042 A 
ATOM      5  C5  UNL d   1       0.057   1.271   2.151  0.00  0.00     0.033 A 
ATOM      6  C6  UNL d   1      -0.578   0.493   1.178  0.00  0.00    -0.057 A 
ENDROOT
BRANCH   1   7
ATOM      7  N   UNL d   1      -2.541  -0.457   0.164  0.00  0.00    -0.732 N 
ATOM      8  C   UNL d   1      -2.845  -1.824   0.529  0.00  0.00     0.284 C 
ATOM      9  H3  UNL d   1      -3.255  -0.011  -0.407  0.00  0.00     0.395 HD
ENDBRANCH   1   7
TORSDOF 1
ENDMDL
