MODEL 1
REMARK minimizedAffinity 3.16828561
REMARK minimizedRMSD -1
REMARK  1 active torsions:
REMARK  status: ('A' for Active; 'I' for Inactive)
REMARK    1  A    between atoms: N_2  and  C1_3 
ROOT
ATOM      1  C1  UNL d   1      -0.957   0.531   1.529  0.00  0.00     0.143 A 
ATOM      2  C2  UNL d   1       0.353   0.681   1.996  0.00  0.00    -0.057 A 
ATOM      3  C3  UNL d   1       0.682   1.671   2.930  0.00  0.00     0.033 A 
ATOM      4  C4  UNL d   1      -0.291   2.550   3.393  0.00  0.00    -0.042 A 
ATOM      5  C5  UNL d   1      -1.595   2.436   2.923  0.00  0.00     0.033 A 
ATOM      6  C6  UNL d   1      -1.919   1.441   1.996  0.00  0.00    -0.057 A 
ENDROOT
BRANCH   1   7
ATOM      7  N   UNL d   1      -1.328  -0.369   0.528  0.00  0.00    -0.732 N 
ATOM      8  C   UNL d   1      -1.547  -1.766   0.836  0.00  0.00     0.284 C 
ATOM      9  H3  UNL d   1      -2.009   0.026  -0.117  0.00  0.00     0.395 HD
ENDBRANCH   1   7
TORSDOF 1
ENDMDL
