MODEL 1
REMARK minimizedAffinity 4.1344676
REMARK minimizedRMSD -1
REMARK  1 active torsions:
REMARK  status: ('A' for Active; 'I' for Inactive)
REMARK    1  A    between atoms: N_2  and  C1_3 
ROOT
ATOM      1  C1  UNL d   1      -1.394   1.302   2.084  0.00  0.00     0.143 A 
ATOM      2  C2  UNL d   1      -2.163   1.746   3.165  0.00  0.00    -0.057 A 
ATOM      3  C3  UNL d   1      -1.568   2.337   4.286  0.00  0.00     0.033 A 
ATOM      4  C4  UNL d   1      -0.185   2.470   4.358  0.00  0.00    -0.042 A 
ATOM      5  C5  UNL d   1       0.601   2.014   3.306  0.00  0.00     0.033 A 
ATOM      6  C6  UNL d   1       0.001   1.430   2.187  0.00  0.00    -0.057 A 
ENDROOT
BRANCH   1   7
ATOM      7  N   UNL d   1      -1.918   0.617   0.986  0.00  0.00    -0.732 N 
ATOM      8  C   UNL d   1      -1.068   0.247  -0.126  0.00  0.00     0.284 C 
ATOM      9  H3  UNL d   1      -2.582  -0.104   1.258  0.00  0.00     0.395 HD
ENDBRANCH   1   7
TORSDOF 1
ENDMDL
