MODEL 1
REMARK minimizedAffinity 8.76581955
REMARK minimizedRMSD -1
REMARK  1 active torsions:
REMARK  status: ('A' for Active; 'I' for Inactive)
REMARK    1  A    between atoms: N_2  and  C1_3 
ROOT
ATOM      1  C1  UNL d   1      -0.988   0.980   1.940  0.00  0.00     0.143 A 
ATOM      2  C2  UNL d   1      -0.653  -0.371   1.792  0.00  0.00    -0.057 A 
ATOM      3  C3  UNL d   1       0.673  -0.806   1.898  0.00  0.00     0.033 A 
ATOM      4  C4  UNL d   1       1.696   0.109   2.126  0.00  0.00    -0.042 A 
ATOM      5  C5  UNL d   1       1.390   1.459   2.251  0.00  0.00     0.033 A 
ATOM      6  C6  UNL d   1       0.063   1.887   2.151  0.00  0.00    -0.057 A 
ENDROOT
BRANCH   1   7
ATOM      7  N   UNL d   1      -2.275   1.488   1.748  0.00  0.00    -0.732 N 
ATOM      8  C   UNL d   1      -3.076   1.059   0.621  0.00  0.00     0.284 C 
ATOM      9  H3  UNL d   1      -2.793   1.571   2.619  0.00  0.00     0.395 HD
ENDBRANCH   1   7
TORSDOF 1
ENDMDL
