MODEL 1
REMARK minimizedAffinity -2.26234722
REMARK minimizedRMSD -1
REMARK  0 active torsions:
REMARK  status: ('A' for Active; 'I' for Inactive)
ROOT
ATOM      1  C   UNL d   1       1.233  -2.256  -0.426  0.00  0.00     0.077 C 
ATOM      2  C1  UNL d   1       0.791  -0.828  -0.539  0.00  0.00    -0.074 A 
ATOM      3  C2  UNL d   1       0.064  -0.217   0.488  0.00  0.00    -0.005 A 
ATOM      4  C3  UNL d   1      -0.332   1.116   0.373  0.00  0.00     0.006 A 
ATOM      5  C4  UNL d   1      -0.006   1.850  -0.768  0.00  0.00    -0.005 A 
ATOM      6  C5  UNL d   1       0.721   1.256  -1.805  0.00  0.00    -0.074 A 
ATOM      7  C6  UNL d   1       1.089   2.034  -3.033  0.00  0.00     0.077 C 
ATOM      8  C7  UNL d   1       1.122  -0.081  -1.679  0.00  0.00    -0.001 A 
ENDROOT
TORSDOF 0
ENDMDL
