MODEL 1
REMARK minimizedAffinity -3.38319421
REMARK minimizedRMSD -1
REMARK  0 active torsions:
REMARK  status: ('A' for Active; 'I' for Inactive)
ROOT
ATOM      1  C   UNL d   1       1.605   1.574  -1.379  0.00  0.00     0.077 C 
ATOM      2  C1  UNL d   1       0.863   0.559  -0.561  0.00  0.00    -0.074 A 
ATOM      3  C2  UNL d   1       1.300  -0.768  -0.494  0.00  0.00    -0.005 A 
ATOM      4  C3  UNL d   1       0.605  -1.699   0.278  0.00  0.00     0.006 A 
ATOM      5  C4  UNL d   1      -0.531  -1.313   0.990  0.00  0.00    -0.005 A 
ATOM      6  C5  UNL d   1      -0.982   0.010   0.936  0.00  0.00    -0.074 A 
ATOM      7  C6  UNL d   1      -2.196   0.444   1.704  0.00  0.00     0.077 C 
ATOM      8  C7  UNL d   1      -0.275   0.941   0.164  0.00  0.00    -0.001 A 
ENDROOT
TORSDOF 0
ENDMDL
