MODEL 1
REMARK minimizedAffinity -1.66018069
REMARK minimizedRMSD -1
REMARK  0 active torsions:
REMARK  status: ('A' for Active; 'I' for Inactive)
ROOT
ATOM      1  C   UNL d   1       0.122  -1.624   0.036  0.00  0.00     0.077 C 
ATOM      2  C1  UNL d   1       0.060  -0.127  -0.044  0.00  0.00    -0.074 A 
ATOM      3  C2  UNL d   1      -0.943   0.586   0.620  0.00  0.00    -0.005 A 
ATOM      4  C3  UNL d   1      -0.983   1.979   0.545  0.00  0.00     0.006 A 
ATOM      5  C4  UNL d   1      -0.022   2.670  -0.195  0.00  0.00    -0.005 A 
ATOM      6  C5  UNL d   1       0.988   1.973  -0.865  0.00  0.00    -0.074 A 
ATOM      7  C6  UNL d   1       2.034   2.701  -1.656  0.00  0.00     0.077 C 
ATOM      8  C7  UNL d   1       1.026   0.575  -0.779  0.00  0.00    -0.001 A 
ENDROOT
TORSDOF 0
ENDMDL
