MODEL 1
REMARK minimizedAffinity -5.39704323
REMARK minimizedRMSD -1
REMARK  0 active torsions:
REMARK  status: ('A' for Active; 'I' for Inactive)
ROOT
ATOM      1  C   UNL d   1       0.474   0.433  -1.166  0.00  0.00     0.077 C 
ATOM      2  C1  UNL d   1      -0.308  -0.443  -0.232  0.00  0.00    -0.074 A 
ATOM      3  C2  UNL d   1       0.089  -1.760   0.019  0.00  0.00    -0.005 A 
ATOM      4  C3  UNL d   1      -0.643  -2.560   0.897  0.00  0.00     0.006 A 
ATOM      5  C4  UNL d   1      -1.776  -2.051   1.532  0.00  0.00    -0.005 A 
ATOM      6  C5  UNL d   1      -2.188  -0.736   1.294  0.00  0.00    -0.074 A 
ATOM      7  C6  UNL d   1      -3.398  -0.170   1.975  0.00  0.00     0.077 C 
ATOM      8  C7  UNL d   1      -1.443   0.064   0.416  0.00  0.00    -0.001 A 
ENDROOT
TORSDOF 0
ENDMDL
