MODEL 1
REMARK minimizedAffinity -1.27290988
REMARK minimizedRMSD -1
REMARK  0 active torsions:
REMARK  status: ('A' for Active; 'I' for Inactive)
ROOT
ATOM      1  C   UNL d   1      -2.077  -2.308   2.374  0.00  0.00     0.077 C 
ATOM      2  C1  UNL d   1      -0.949  -1.937   1.457  0.00  0.00    -0.074 A 
ATOM      3  C2  UNL d   1      -0.105  -2.916   0.923  0.00  0.00    -0.005 A 
ATOM      4  C3  UNL d   1       0.934  -2.557   0.064  0.00  0.00     0.006 A 
ATOM      5  C4  UNL d   1       1.138  -1.218  -0.269  0.00  0.00    -0.005 A 
ATOM      6  C5  UNL d   1       0.304  -0.225   0.254  0.00  0.00    -0.074 A 
ATOM      7  C6  UNL d   1       0.504   1.218  -0.102  0.00  0.00     0.077 C 
ATOM      8  C7  UNL d   1      -0.742  -0.595   1.111  0.00  0.00    -0.001 A 
ENDROOT
TORSDOF 0
ENDMDL
