MODEL 1
REMARK minimizedAffinity -2.03016996
REMARK minimizedRMSD -1
REMARK  0 active torsions:
REMARK  status: ('A' for Active; 'I' for Inactive)
ROOT
ATOM      1  C   UNL d   1      -2.296  -1.079   2.765  0.00  0.00     0.077 C 
ATOM      2  C1  UNL d   1      -1.390  -1.355   1.602  0.00  0.00    -0.074 A 
ATOM      3  C2  UNL d   1      -1.051  -2.665   1.250  0.00  0.00    -0.005 A 
ATOM      4  C3  UNL d   1      -0.216  -2.906   0.159  0.00  0.00     0.006 A 
ATOM      5  C4  UNL d   1       0.288  -1.842  -0.589  0.00  0.00    -0.005 A 
ATOM      6  C5  UNL d   1      -0.040  -0.525  -0.252  0.00  0.00    -0.074 A 
ATOM      7  C6  UNL d   1       0.486   0.630  -1.051  0.00  0.00     0.077 C 
ATOM      8  C7  UNL d   1      -0.886  -0.291   0.841  0.00  0.00    -0.001 A 
ENDROOT
TORSDOF 0
ENDMDL
