MODEL 1
REMARK minimizedAffinity -1.52198005
REMARK minimizedRMSD -1
REMARK  0 active torsions:
REMARK  status: ('A' for Active; 'I' for Inactive)
ROOT
ATOM      1  C   UNL d   1       0.394  -1.895  -0.094  0.00  0.00     0.077 C 
ATOM      2  C1  UNL d   1       0.455  -0.419  -0.351  0.00  0.00    -0.074 A 
ATOM      3  C2  UNL d   1       0.262   0.500   0.686  0.00  0.00    -0.005 A 
ATOM      4  C3  UNL d   1       0.332   1.870   0.433  0.00  0.00     0.006 A 
ATOM      5  C4  UNL d   1       0.595   2.334  -0.856  0.00  0.00    -0.005 A 
ATOM      6  C5  UNL d   1       0.792   1.431  -1.905  0.00  0.00    -0.074 A 
ATOM      7  C6  UNL d   1       1.085   1.913  -3.295  0.00  0.00     0.077 C 
ATOM      8  C7  UNL d   1       0.727   0.055  -1.642  0.00  0.00    -0.001 A 
ENDROOT
TORSDOF 0
ENDMDL
