MODEL 1
REMARK minimizedAffinity -3.95228028
REMARK minimizedRMSD -1
REMARK  0 active torsions:
REMARK  status: ('A' for Active; 'I' for Inactive)
ROOT
ATOM      1  C   UNL d   1      -2.636  -0.687   2.672  0.00  0.00     0.077 C 
ATOM      2  C1  UNL d   1      -1.572  -0.953   1.649  0.00  0.00    -0.074 A 
ATOM      3  C2  UNL d   1      -1.077  -2.245   1.446  0.00  0.00    -0.005 A 
ATOM      4  C3  UNL d   1      -0.094  -2.479   0.484  0.00  0.00     0.006 A 
ATOM      5  C4  UNL d   1       0.403  -1.424  -0.283  0.00  0.00    -0.005 A 
ATOM      6  C5  UNL d   1      -0.080  -0.126  -0.094  0.00  0.00    -0.074 A 
ATOM      7  C6  UNL d   1       0.437   1.017  -0.916  0.00  0.00     0.077 C 
ATOM      8  C7  UNL d   1      -1.073   0.100   0.870  0.00  0.00    -0.001 A 
ENDROOT
TORSDOF 0
ENDMDL
