MODEL 1
REMARK minimizedAffinity -5.03793669
REMARK minimizedRMSD -1
REMARK  0 active torsions:
REMARK  status: ('A' for Active; 'I' for Inactive)
ROOT
ATOM      1  C   UNL d   1      -2.178  -1.849   1.820  0.00  0.00     0.077 C 
ATOM      2  C1  UNL d   1      -1.079  -1.168   1.060  0.00  0.00    -0.074 A 
ATOM      3  C2  UNL d   1      -1.294   0.067   0.438  0.00  0.00    -0.005 A 
ATOM      4  C3  UNL d   1      -0.260   0.693  -0.257  0.00  0.00     0.006 A 
ATOM      5  C4  UNL d   1       0.997   0.092  -0.339  0.00  0.00    -0.005 A 
ATOM      6  C5  UNL d   1       1.230  -1.142   0.276  0.00  0.00    -0.074 A 
ATOM      7  C6  UNL d   1       2.578  -1.797   0.207  0.00  0.00     0.077 C 
ATOM      8  C7  UNL d   1       0.188  -1.762   0.980  0.00  0.00    -0.001 A 
ENDROOT
TORSDOF 0
ENDMDL
