MODEL 1
REMARK minimizedAffinity -4.52807903
REMARK minimizedRMSD -1
REMARK  0 active torsions:
REMARK  status: ('A' for Active; 'I' for Inactive)
ROOT
ATOM      1  C   UNL d   1       0.341  -1.572  -0.035  0.00  0.00     0.077 C 
ATOM      2  C1  UNL d   1       0.344  -0.128  -0.443  0.00  0.00    -0.074 A 
ATOM      3  C2  UNL d   1      -0.038   0.873   0.456  0.00  0.00    -0.005 A 
ATOM      4  C3  UNL d   1      -0.021   2.212   0.065  0.00  0.00     0.006 A 
ATOM      5  C4  UNL d   1       0.378   2.563  -1.225  0.00  0.00    -0.005 A 
ATOM      6  C5  UNL d   1       0.764   1.575  -2.137  0.00  0.00    -0.074 A 
ATOM      7  C6  UNL d   1       1.205   1.936  -3.524  0.00  0.00     0.077 C 
ATOM      8  C7  UNL d   1       0.751   0.233  -1.735  0.00  0.00    -0.001 A 
ENDROOT
TORSDOF 0
ENDMDL
