MODEL 1
REMARK minimizedAffinity -1.08346796
REMARK minimizedRMSD -1
REMARK  0 active torsions:
REMARK  status: ('A' for Active; 'I' for Inactive)
ROOT
ATOM      1  C   UNL d   1       0.015  -2.772   2.898  0.00  0.00     0.077 C 
ATOM      2  C1  UNL d   1      -0.608  -2.046   1.743  0.00  0.00    -0.074 A 
ATOM      3  C2  UNL d   1      -1.811  -2.487   1.181  0.00  0.00    -0.005 A 
ATOM      4  C3  UNL d   1      -2.383  -1.796   0.113  0.00  0.00     0.006 A 
ATOM      5  C4  UNL d   1      -1.760  -0.659  -0.402  0.00  0.00    -0.005 A 
ATOM      6  C5  UNL d   1      -0.558  -0.202   0.147  0.00  0.00    -0.074 A 
ATOM      7  C6  UNL d   1       0.119   1.024  -0.388  0.00  0.00     0.077 C 
ATOM      8  C7  UNL d   1       0.007  -0.898   1.225  0.00  0.00    -0.001 A 
ENDROOT
TORSDOF 0
ENDMDL
