MODEL 1
REMARK minimizedAffinity -3.58562303
REMARK minimizedRMSD -1
REMARK  0 active torsions:
REMARK  status: ('A' for Active; 'I' for Inactive)
ROOT
ATOM      1  C   UNL d   1      -0.434  -2.869   1.928  0.00  0.00     0.077 C 
ATOM      2  C1  UNL d   1      -0.799  -1.500   1.436  0.00  0.00    -0.074 A 
ATOM      3  C2  UNL d   1      -1.894  -0.813   1.968  0.00  0.00    -0.005 A 
ATOM      4  C3  UNL d   1      -2.216   0.464   1.507  0.00  0.00     0.006 A 
ATOM      5  C4  UNL d   1      -1.446   1.065   0.510  0.00  0.00    -0.005 A 
ATOM      6  C5  UNL d   1      -0.346   0.393  -0.033  0.00  0.00    -0.074 A 
ATOM      7  C6  UNL d   1       0.498   1.029  -1.098  0.00  0.00     0.077 C 
ATOM      8  C7  UNL d   1      -0.026  -0.886   0.440  0.00  0.00    -0.001 A 
ENDROOT
TORSDOF 0
ENDMDL
