MODEL 1
REMARK minimizedAffinity -2.12324333
REMARK minimizedRMSD -1
REMARK  0 active torsions:
REMARK  status: ('A' for Active; 'I' for Inactive)
ROOT
ATOM      1  C   UNL d   1       1.213   2.358  -3.014  0.00  0.00     0.077 C 
ATOM      2  C1  UNL d   1       0.639   1.736  -1.776  0.00  0.00    -0.074 A 
ATOM      3  C2  UNL d   1      -0.015   2.517  -0.817  0.00  0.00    -0.005 A 
ATOM      4  C3  UNL d   1      -0.552   1.924   0.326  0.00  0.00     0.006 A 
ATOM      5  C4  UNL d   1      -0.442   0.546   0.520  0.00  0.00    -0.005 A 
ATOM      6  C5  UNL d   1       0.207  -0.250  -0.428  0.00  0.00    -0.074 A 
ATOM      7  C6  UNL d   1       0.325  -1.734  -0.240  0.00  0.00     0.077 C 
ATOM      8  C7  UNL d   1       0.738   0.352  -1.577  0.00  0.00    -0.001 A 
ENDROOT
TORSDOF 0
ENDMDL
