MODEL 1
REMARK minimizedAffinity -3.72519708
REMARK minimizedRMSD -1
REMARK  0 active torsions:
REMARK  status: ('A' for Active; 'I' for Inactive)
ROOT
ATOM      1  C   UNL d   1      -0.417  -0.878  -0.001  0.00  0.00     0.077 C 
ATOM      2  C1  UNL d   1       0.008   0.164  -0.992  0.00  0.00    -0.074 A 
ATOM      3  C2  UNL d   1       0.697   1.310  -0.580  0.00  0.00    -0.005 A 
ATOM      4  C3  UNL d   1       1.094   2.265  -1.515  0.00  0.00     0.006 A 
ATOM      5  C4  UNL d   1       0.807   2.086  -2.869  0.00  0.00    -0.005 A 
ATOM      6  C5  UNL d   1       0.120   0.947  -3.299  0.00  0.00    -0.074 A 
ATOM      7  C6  UNL d   1      -0.188   0.734  -4.752  0.00  0.00     0.077 C 
ATOM      8  C7  UNL d   1      -0.270  -0.013  -2.355  0.00  0.00    -0.001 A 
ENDROOT
TORSDOF 0
ENDMDL
