MODEL 1
REMARK minimizedAffinity -6.04151726
REMARK minimizedRMSD -1
REMARK  0 active torsions:
REMARK  status: ('A' for Active; 'I' for Inactive)
ROOT
ATOM      1  C   UNL d   1       0.654   1.194  -0.814  0.00  0.00     0.077 C 
ATOM      2  C1  UNL d   1       0.053   0.131   0.057  0.00  0.00    -0.074 A 
ATOM      3  C2  UNL d   1       0.552  -1.175   0.045  0.00  0.00    -0.005 A 
ATOM      4  C3  UNL d   1      -0.012  -2.151   0.867  0.00  0.00     0.006 A 
ATOM      5  C4  UNL d   1      -1.078  -1.831   1.708  0.00  0.00    -0.005 A 
ATOM      6  C5  UNL d   1      -1.590  -0.529   1.734  0.00  0.00    -0.074 A 
ATOM      7  C6  UNL d   1      -2.729  -0.166   2.639  0.00  0.00     0.077 C 
ATOM      8  C7  UNL d   1      -1.014   0.447   0.910  0.00  0.00    -0.001 A 
ENDROOT
TORSDOF 0
ENDMDL
