MODEL 1
REMARK minimizedAffinity -4.44552469
REMARK minimizedRMSD -1
REMARK  0 active torsions:
REMARK  status: ('A' for Active; 'I' for Inactive)
ROOT
ATOM      1  C   UNL d   1       0.748   1.125  -0.938  0.00  0.00     0.077 C 
ATOM      2  C1  UNL d   1       0.209   0.076  -0.012  0.00  0.00    -0.074 A 
ATOM      3  C2  UNL d   1       0.795  -1.192   0.058  0.00  0.00    -0.005 A 
ATOM      4  C3  UNL d   1       0.288  -2.154   0.931  0.00  0.00     0.006 A 
ATOM      5  C4  UNL d   1      -0.808  -1.859   1.742  0.00  0.00    -0.005 A 
ATOM      6  C5  UNL d   1      -1.407  -0.596   1.688  0.00  0.00    -0.074 A 
ATOM      7  C6  UNL d   1      -2.579  -0.259   2.560  0.00  0.00     0.077 C 
ATOM      8  C7  UNL d   1      -0.887   0.368   0.813  0.00  0.00    -0.001 A 
ENDROOT
TORSDOF 0
ENDMDL
