MODEL 1
REMARK minimizedAffinity -3.00913382
REMARK minimizedRMSD -1
REMARK  0 active torsions:
REMARK  status: ('A' for Active; 'I' for Inactive)
ROOT
ATOM      1  C   UNL d   1       0.977   1.128  -1.350  0.00  0.00     0.077 C 
ATOM      2  C1  UNL d   1       0.444   0.056  -0.447  0.00  0.00    -0.074 A 
ATOM      3  C2  UNL d   1       0.963  -1.243  -0.488  0.00  0.00    -0.005 A 
ATOM      4  C3  UNL d   1       0.464  -2.227   0.365  0.00  0.00     0.006 A 
ATOM      5  C4  UNL d   1      -0.557  -1.924   1.267  0.00  0.00    -0.005 A 
ATOM      6  C5  UNL d   1      -1.088  -0.631   1.323  0.00  0.00    -0.074 A 
ATOM      7  C6  UNL d   1      -2.178  -0.286   2.293  0.00  0.00     0.077 C 
ATOM      8  C7  UNL d   1      -0.576   0.355   0.468  0.00  0.00    -0.001 A 
ENDROOT
TORSDOF 0
ENDMDL
