MODEL 1
REMARK minimizedAffinity -4.18882608
REMARK minimizedRMSD -1
REMARK  0 active torsions:
REMARK  status: ('A' for Active; 'I' for Inactive)
ROOT
ATOM      1  C   UNL d   1       3.824   1.312  -3.769  0.00  0.00     0.077 C 
ATOM      2  C1  UNL d   1       2.399   1.527  -3.353  0.00  0.00    -0.074 A 
ATOM      3  C2  UNL d   1       1.492   2.170  -4.201  0.00  0.00    -0.005 A 
ATOM      4  C3  UNL d   1       0.167   2.355  -3.804  0.00  0.00     0.006 A 
ATOM      5  C4  UNL d   1      -0.262   1.899  -2.557  0.00  0.00    -0.005 A 
ATOM      6  C5  UNL d   1       0.630   1.253  -1.696  0.00  0.00    -0.074 A 
ATOM      7  C6  UNL d   1       0.182   0.748  -0.356  0.00  0.00     0.077 C 
ATOM      8  C7  UNL d   1       1.958   1.065  -2.105  0.00  0.00    -0.001 A 
ENDROOT
TORSDOF 0
ENDMDL
