MODEL 1
REMARK minimizedAffinity 1.69166327
REMARK minimizedRMSD -1
REMARK  1 active torsions:
REMARK  status: ('A' for Active; 'I' for Inactive)
REMARK    1  A    between atoms: C3_4  and  O_7 
ROOT
ATOM      1  C   UNL d   1       0.437   0.415   3.554  0.00  0.00    -0.033 A 
ATOM      2  C1  UNL d   1       0.508   0.172   2.181  0.00  0.00     0.039 A 
ATOM      3  C2  UNL d   1      -0.616   0.371   1.376  0.00  0.00    -0.080 A 
ATOM      4  C3  UNL d   1      -1.801   0.813   1.956  0.00  0.00     0.150 A 
ATOM      5  C4  UNL d   1      -1.878   1.061   3.322  0.00  0.00    -0.007 A 
ATOM      6  C5  UNL d   1      -0.755   0.861   4.124  0.00  0.00     0.039 A 
ENDROOT
BRANCH   4   7
ATOM      7  O   UNL d   1      -2.925   1.017   1.211  0.00  0.00    -0.526 OA
ATOM      8  H5  UNL d   1      -2.732   0.778   0.290  0.00  0.00     0.418 HD
ENDBRANCH   4   7
TORSDOF 1
ENDMDL
