MODEL 1
REMARK minimizedAffinity 5.54693317
REMARK minimizedRMSD -1
REMARK  1 active torsions:
REMARK  status: ('A' for Active; 'I' for Inactive)
REMARK    1  A    between atoms: C3_4  and  O_7 
ROOT
ATOM      1  C   UNL d   1      -4.950   0.905   2.235  0.00  0.00    -0.033 A 
ATOM      2  C1  UNL d   1      -4.383   0.789   0.965  0.00  0.00     0.039 A 
ATOM      3  C2  UNL d   1      -3.004   0.617   0.827  0.00  0.00    -0.080 A 
ATOM      4  C3  UNL d   1      -2.206   0.561   1.966  0.00  0.00     0.150 A 
ATOM      5  C4  UNL d   1      -2.765   0.671   3.235  0.00  0.00    -0.007 A 
ATOM      6  C5  UNL d   1      -4.142   0.845   3.370  0.00  0.00     0.039 A 
ENDROOT
BRANCH   4   7
ATOM      7  O   UNL d   1      -0.855   0.398   1.882  0.00  0.00    -0.526 OA
ATOM      8  H5  UNL d   1      -0.607   0.365   0.943  0.00  0.00     0.418 HD
ENDBRANCH   4   7
TORSDOF 1
ENDMDL
