MODEL 1
REMARK minimizedAffinity 2.68806028
REMARK minimizedRMSD -1
REMARK  1 active torsions:
REMARK  status: ('A' for Active; 'I' for Inactive)
REMARK    1  A    between atoms: C3_4  and  O_7 
ROOT
ATOM      1  C   UNL d   1      -5.997   4.817   5.988  0.00  0.00    -0.033 A 
ATOM      2  C1  UNL d   1      -6.000   3.901   4.934  0.00  0.00     0.039 A 
ATOM      3  C2  UNL d   1      -5.085   4.034   3.888  0.00  0.00    -0.080 A 
ATOM      4  C3  UNL d   1      -4.173   5.086   3.908  0.00  0.00     0.150 A 
ATOM      5  C4  UNL d   1      -4.162   6.000   4.957  0.00  0.00    -0.007 A 
ATOM      6  C5  UNL d   1      -5.077   5.865   6.000  0.00  0.00     0.039 A 
ENDROOT
BRANCH   4   7
ATOM      7  O   UNL d   1      -3.264   5.260   2.907  0.00  0.00    -0.526 OA
ATOM      8  H5  UNL d   1      -3.408   4.571   2.237  0.00  0.00     0.418 HD
ENDBRANCH   4   7
TORSDOF 1
ENDMDL
