MODEL 1
REMARK minimizedAffinity 0.0132219018
REMARK minimizedRMSD -1
REMARK  1 active torsions:
REMARK  status: ('A' for Active; 'I' for Inactive)
REMARK    1  A    between atoms: C3_4  and  O_7 
ROOT
ATOM      1  C   UNL d   1      -3.823   0.203   1.196  0.00  0.00    -0.033 A 
ATOM      2  C1  UNL d   1      -2.609   0.013   0.534  0.00  0.00     0.039 A 
ATOM      3  C2  UNL d   1      -1.408   0.078   1.243  0.00  0.00    -0.080 A 
ATOM      4  C3  UNL d   1      -1.435   0.331   2.612  0.00  0.00     0.150 A 
ATOM      5  C4  UNL d   1      -2.641   0.517   3.278  0.00  0.00    -0.007 A 
ATOM      6  C5  UNL d   1      -3.840   0.453   2.568  0.00  0.00     0.039 A 
ENDROOT
BRANCH   4   7
ATOM      7  O   UNL d   1      -0.288   0.408   3.345  0.00  0.00    -0.526 OA
ATOM      8  H5  UNL d   1       0.468   0.288   2.747  0.00  0.00     0.418 HD
ENDBRANCH   4   7
TORSDOF 1
ENDMDL
