MODEL 1
REMARK minimizedAffinity 6.96709204
REMARK minimizedRMSD -1
REMARK  1 active torsions:
REMARK  status: ('A' for Active; 'I' for Inactive)
REMARK    1  A    between atoms: C3_4  and  O_7 
ROOT
ATOM      1  C   UNL d   1      -4.410   0.773   2.208  0.00  0.00    -0.033 A 
ATOM      2  C1  UNL d   1      -3.639   1.597   1.386  0.00  0.00     0.039 A 
ATOM      3  C2  UNL d   1      -2.257   1.413   1.310  0.00  0.00    -0.080 A 
ATOM      4  C3  UNL d   1      -1.659   0.403   2.059  0.00  0.00     0.150 A 
ATOM      5  C4  UNL d   1      -2.422  -0.424   2.877  0.00  0.00    -0.007 A 
ATOM      6  C5  UNL d   1      -3.802  -0.239   2.952  0.00  0.00     0.039 A 
ENDROOT
BRANCH   4   7
ATOM      7  O   UNL d   1      -0.313   0.189   2.021  0.00  0.00    -0.526 OA
ATOM      8  H5  UNL d   1       0.088   0.854   1.436  0.00  0.00     0.418 HD
ENDBRANCH   4   7
TORSDOF 1
ENDMDL
