MODEL 1
REMARK minimizedAffinity 2.02551699
REMARK minimizedRMSD -1
REMARK  1 active torsions:
REMARK  status: ('A' for Active; 'I' for Inactive)
REMARK    1  A    between atoms: C3_4  and  O_7 
ROOT
ATOM      1  C   UNL d   1      -5.758   0.015   2.342  0.00  0.00    -0.033 A 
ATOM      2  C1  UNL d   1      -5.127   0.594   1.239  0.00  0.00     0.039 A 
ATOM      3  C2  UNL d   1      -3.741   0.764   1.235  0.00  0.00    -0.080 A 
ATOM      4  C3  UNL d   1      -2.999   0.351   2.338  0.00  0.00     0.150 A 
ATOM      5  C4  UNL d   1      -3.620  -0.231   3.438  0.00  0.00    -0.007 A 
ATOM      6  C5  UNL d   1      -5.004  -0.399   3.441  0.00  0.00     0.039 A 
ENDROOT
BRANCH   4   7
ATOM      7  O   UNL d   1      -1.644   0.500   2.382  0.00  0.00    -0.526 OA
ATOM      8  H5  UNL d   1      -1.357   0.942   1.565  0.00  0.00     0.418 HD
ENDBRANCH   4   7
TORSDOF 1
ENDMDL
