MODEL 1
REMARK minimizedAffinity 3.13579679
REMARK minimizedRMSD -1
REMARK  1 active torsions:
REMARK  status: ('A' for Active; 'I' for Inactive)
REMARK    1  A    between atoms: C3_4  and  O_7 
ROOT
ATOM      1  C   UNL d   1      -3.400  -1.010   1.338  0.00  0.00    -0.033 A 
ATOM      2  C1  UNL d   1      -2.067  -0.612   1.222  0.00  0.00     0.039 A 
ATOM      3  C2  UNL d   1      -1.712   0.719   1.450  0.00  0.00    -0.080 A 
ATOM      4  C3  UNL d   1      -2.698   1.640   1.795  0.00  0.00     0.150 A 
ATOM      5  C4  UNL d   1      -4.027   1.249   1.916  0.00  0.00    -0.007 A 
ATOM      6  C5  UNL d   1      -4.380  -0.080   1.687  0.00  0.00     0.039 A 
ENDROOT
BRANCH   4   7
ATOM      7  O   UNL d   1      -2.400   2.951   2.023  0.00  0.00    -0.526 OA
ATOM      8  H5  UNL d   1      -1.448   3.080   1.874  0.00  0.00     0.418 HD
ENDBRANCH   4   7
TORSDOF 1
ENDMDL
