MODEL 1
REMARK minimizedAffinity 1.6566062
REMARK minimizedRMSD -1
REMARK  1 active torsions:
REMARK  status: ('A' for Active; 'I' for Inactive)
REMARK    1  A    between atoms: C3_4  and  O_7 
ROOT
ATOM      1  C   UNL d   1      -5.470   1.458   2.447  0.00  0.00    -0.033 A 
ATOM      2  C1  UNL d   1      -4.400   1.908   3.223  0.00  0.00     0.039 A 
ATOM      3  C2  UNL d   1      -3.092   1.558   2.882  0.00  0.00    -0.080 A 
ATOM      4  C3  UNL d   1      -2.868   0.760   1.764  0.00  0.00     0.150 A 
ATOM      5  C4  UNL d   1      -3.929   0.312   0.984  0.00  0.00    -0.007 A 
ATOM      6  C5  UNL d   1      -5.234   0.661   1.326  0.00  0.00     0.039 A 
ENDROOT
BRANCH   4   7
ATOM      7  O   UNL d   1      -1.609   0.389   1.395  0.00  0.00    -0.526 OA
ATOM      8  H5  UNL d   1      -0.980   0.748   2.042  0.00  0.00     0.418 HD
ENDBRANCH   4   7
TORSDOF 1
ENDMDL
