MODEL 1
REMARK minimizedAffinity -0.908153415
REMARK minimizedRMSD -1
REMARK  1 active torsions:
REMARK  status: ('A' for Active; 'I' for Inactive)
REMARK    1  A    between atoms: C3_4  and  O_7 
ROOT
ATOM      1  C   UNL d   1       1.246  -5.622   2.842  0.00  0.00    -0.033 A 
ATOM      2  C1  UNL d   1       1.520  -5.243   1.526  0.00  0.00     0.039 A 
ATOM      3  C2  UNL d   1       2.836  -5.235   1.060  0.00  0.00    -0.080 A 
ATOM      4  C3  UNL d   1       3.867  -5.609   1.918  0.00  0.00     0.150 A 
ATOM      5  C4  UNL d   1       3.601  -5.991   3.228  0.00  0.00    -0.007 A 
ATOM      6  C5  UNL d   1       2.286  -5.997   3.692  0.00  0.00     0.039 A 
ENDROOT
BRANCH   4   7
ATOM      7  O   UNL d   1       5.168  -5.612   1.509  0.00  0.00    -0.526 OA
ATOM      8  H5  UNL d   1       5.203  -5.298   0.590  0.00  0.00     0.418 HD
ENDBRANCH   4   7
TORSDOF 1
ENDMDL
