MODEL 1
REMARK minimizedAffinity -2.2813623
REMARK minimizedRMSD -1
REMARK  1 active torsions:
REMARK  status: ('A' for Active; 'I' for Inactive)
REMARK    1  A    between atoms: C3_4  and  O_7 
ROOT
ATOM      1  C   UNL d   1      -2.755  -4.063   0.748  0.00  0.00    -0.033 A 
ATOM      2  C1  UNL d   1      -1.642  -3.224   0.661  0.00  0.00     0.039 A 
ATOM      3  C2  UNL d   1      -0.356  -3.767   0.649  0.00  0.00    -0.080 A 
ATOM      4  C3  UNL d   1      -0.196  -5.148   0.723  0.00  0.00     0.150 A 
ATOM      5  C4  UNL d   1      -1.300  -5.990   0.806  0.00  0.00    -0.007 A 
ATOM      6  C5  UNL d   1      -2.584  -5.446   0.819  0.00  0.00     0.039 A 
ENDROOT
BRANCH   4   7
ATOM      7  O   UNL d   1       1.040  -5.724   0.719  0.00  0.00    -0.526 OA
ATOM      8  H5  UNL d   1       1.708  -5.018   0.687  0.00  0.00     0.418 HD
ENDBRANCH   4   7
TORSDOF 1
ENDMDL
