MODEL 1
REMARK minimizedAffinity 2.99137187
REMARK minimizedRMSD -1
REMARK  1 active torsions:
REMARK  status: ('A' for Active; 'I' for Inactive)
REMARK    1  A    between atoms: C3_4  and  O_7 
ROOT
ATOM      1  C   UNL d   1       1.055   0.403   1.837  0.00  0.00    -0.033 A 
ATOM      2  C1  UNL d   1       1.804   0.093   2.974  0.00  0.00     0.039 A 
ATOM      3  C2  UNL d   1       3.164  -0.201   2.857  0.00  0.00    -0.080 A 
ATOM      4  C3  UNL d   1       3.762  -0.180   1.600  0.00  0.00     0.150 A 
ATOM      5  C4  UNL d   1       3.023   0.131   0.464  0.00  0.00    -0.007 A 
ATOM      6  C5  UNL d   1       1.665   0.424   0.582  0.00  0.00     0.039 A 
ENDROOT
BRANCH   4   7
ATOM      7  O   UNL d   1       5.086  -0.465   1.436  0.00  0.00    -0.526 OA
ATOM      8  H5  UNL d   1       5.462  -0.690   2.304  0.00  0.00     0.418 HD
ENDBRANCH   4   7
TORSDOF 1
ENDMDL
