MODEL 1
REMARK minimizedAffinity 1.86297357
REMARK minimizedRMSD -1
REMARK  1 active torsions:
REMARK  status: ('A' for Active; 'I' for Inactive)
REMARK    1  A    between atoms: C3_4  and  O_7 
ROOT
ATOM      1  C   UNL d   1      -2.754   1.231   2.797  0.00  0.00    -0.033 A 
ATOM      2  C1  UNL d   1      -1.897   0.481   1.989  0.00  0.00     0.039 A 
ATOM      3  C2  UNL d   1      -2.417  -0.478   1.118  0.00  0.00    -0.080 A 
ATOM      4  C3  UNL d   1      -3.794  -0.677   1.063  0.00  0.00     0.150 A 
ATOM      5  C4  UNL d   1      -4.654   0.069   1.862  0.00  0.00    -0.007 A 
ATOM      6  C5  UNL d   1      -4.133   1.026   2.733  0.00  0.00     0.039 A 
ENDROOT
BRANCH   4   7
ATOM      7  O   UNL d   1      -4.347  -1.605   0.232  0.00  0.00    -0.526 OA
ATOM      8  H5  UNL d   1      -3.631  -2.063  -0.238  0.00  0.00     0.418 HD
ENDBRANCH   4   7
TORSDOF 1
ENDMDL
