MODEL 1
REMARK minimizedAffinity 6.13859987
REMARK minimizedRMSD -1
REMARK  1 active torsions:
REMARK  status: ('A' for Active; 'I' for Inactive)
REMARK    1  A    between atoms: C3_4  and  O_7 
ROOT
ATOM      1  C   UNL d   1      -3.204  -1.108   0.542  0.00  0.00    -0.033 A 
ATOM      2  C1  UNL d   1      -4.498  -0.698   0.215  0.00  0.00     0.039 A 
ATOM      3  C2  UNL d   1      -4.967   0.546   0.642  0.00  0.00    -0.080 A 
ATOM      4  C3  UNL d   1      -4.133   1.369   1.394  0.00  0.00     0.150 A 
ATOM      5  C4  UNL d   1      -2.841   0.969   1.720  0.00  0.00    -0.007 A 
ATOM      6  C5  UNL d   1      -2.375  -0.274   1.293  0.00  0.00     0.039 A 
ENDROOT
BRANCH   4   7
ATOM      7  O   UNL d   1      -4.548   2.590   1.837  0.00  0.00    -0.526 OA
ATOM      8  H5  UNL d   1      -5.470   2.720   1.560  0.00  0.00     0.418 HD
ENDBRANCH   4   7
TORSDOF 1
ENDMDL
