MODEL 1
REMARK minimizedAffinity -5.48269653
REMARK minimizedRMSD -1
REMARK  0 active torsions:
REMARK  status: ('A' for Active; 'I' for Inactive)
ROOT
ATOM      1  C   UNL d   1       0.902   1.165  -0.073  0.00  0.00     0.078 C 
ATOM      2  C1  UNL d   1       0.408  -0.219   0.227  0.00  0.00    -0.077 A 
ATOM      3  C2  UNL d   1      -0.555  -0.442   1.218  0.00  0.00    -0.001 A 
ATOM      4  C3  UNL d   1      -0.998  -1.737   1.492  0.00  0.00     0.003 A 
ATOM      5  C4  UNL d   1      -0.483  -2.818   0.781  0.00  0.00    -0.005 A 
ATOM      6  C5  UNL d   1       0.478  -2.606  -0.206  0.00  0.00     0.003 A 
ATOM      7  C6  UNL d   1       0.922  -1.312  -0.481  0.00  0.00    -0.001 A 
ENDROOT
TORSDOF 0
ENDMDL
