MODEL 1
REMARK minimizedAffinity -2.90941119
REMARK minimizedRMSD -1
REMARK  0 active torsions:
REMARK  status: ('A' for Active; 'I' for Inactive)
ROOT
ATOM      1  C   UNL d   1       0.487  -3.223   0.325  0.00  0.00     0.078 C 
ATOM      2  C1  UNL d   1       0.382  -1.746   0.093  0.00  0.00    -0.077 A 
ATOM      3  C2  UNL d   1      -0.363  -0.932   0.956  0.00  0.00    -0.001 A 
ATOM      4  C3  UNL d   1      -0.460   0.441   0.723  0.00  0.00     0.003 A 
ATOM      5  C4  UNL d   1       0.184   1.012  -0.373  0.00  0.00    -0.005 A 
ATOM      6  C5  UNL d   1       0.926   0.210  -1.238  0.00  0.00     0.003 A 
ATOM      7  C6  UNL d   1       1.024  -1.163  -1.007  0.00  0.00    -0.001 A 
ENDROOT
TORSDOF 0
ENDMDL
