MODEL 1
REMARK minimizedAffinity -4.44010067
REMARK minimizedRMSD -1
REMARK  0 active torsions:
REMARK  status: ('A' for Active; 'I' for Inactive)
ROOT
ATOM      1  C   UNL d   1       0.399  -2.944   0.294  0.00  0.00     0.078 C 
ATOM      2  C1  UNL d   1       0.188  -1.470   0.119  0.00  0.00    -0.077 A 
ATOM      3  C2  UNL d   1       0.731  -0.789  -0.977  0.00  0.00    -0.001 A 
ATOM      4  C3  UNL d   1       0.535   0.585  -1.122  0.00  0.00     0.003 A 
ATOM      5  C4  UNL d   1      -0.203   1.291  -0.174  0.00  0.00    -0.005 A 
ATOM      6  C5  UNL d   1      -0.745   0.622   0.922  0.00  0.00     0.003 A 
ATOM      7  C6  UNL d   1      -0.550  -0.752   1.069  0.00  0.00    -0.001 A 
ENDROOT
TORSDOF 0
ENDMDL
