MODEL 1
REMARK minimizedAffinity -3.72072887
REMARK minimizedRMSD -1
REMARK  0 active torsions:
REMARK  status: ('A' for Active; 'I' for Inactive)
ROOT
ATOM      1  C   UNL d   1       0.411   1.332  -0.490  0.00  0.00     0.078 C 
ATOM      2  C1  UNL d   1       0.065  -0.045  -0.009  0.00  0.00    -0.077 A 
ATOM      3  C2  UNL d   1      -0.889  -0.239   0.998  0.00  0.00    -0.001 A 
ATOM      4  C3  UNL d   1      -1.193  -1.526   1.443  0.00  0.00     0.003 A 
ATOM      5  C4  UNL d   1      -0.548  -2.630   0.888  0.00  0.00    -0.005 A 
ATOM      6  C5  UNL d   1       0.404  -2.446  -0.113  0.00  0.00     0.003 A 
ATOM      7  C6  UNL d   1       0.710  -1.160  -0.559  0.00  0.00    -0.001 A 
ENDROOT
TORSDOF 0
ENDMDL
