MODEL 1
REMARK minimizedAffinity -5.92916822
REMARK minimizedRMSD -1
REMARK  0 active torsions:
REMARK  status: ('A' for Active; 'I' for Inactive)
ROOT
ATOM      1  C   UNL d   1      -1.933  -0.775   2.686  0.00  0.00     0.078 C 
ATOM      2  C1  UNL d   1      -1.022  -1.120   1.546  0.00  0.00    -0.077 A 
ATOM      3  C2  UNL d   1      -0.613  -2.440   1.323  0.00  0.00    -0.001 A 
ATOM      4  C3  UNL d   1       0.243  -2.745   0.264  0.00  0.00     0.003 A 
ATOM      5  C4  UNL d   1       0.699  -1.735  -0.580  0.00  0.00    -0.005 A 
ATOM      6  C5  UNL d   1       0.300  -0.417  -0.365  0.00  0.00     0.003 A 
ATOM      7  C6  UNL d   1      -0.557  -0.110   0.694  0.00  0.00    -0.001 A 
ENDROOT
TORSDOF 0
ENDMDL
