MODEL 1
REMARK minimizedAffinity -4.23210907
REMARK minimizedRMSD -1
REMARK  0 active torsions:
REMARK  status: ('A' for Active; 'I' for Inactive)
ROOT
ATOM      1  C   UNL d   1       0.709   0.566   0.659  0.00  0.00     0.078 C 
ATOM      2  C1  UNL d   1      -0.104  -0.694   0.645  0.00  0.00    -0.077 A 
ATOM      3  C2  UNL d   1       0.497  -1.938   0.414  0.00  0.00    -0.001 A 
ATOM      4  C3  UNL d   1      -0.273  -3.101   0.394  0.00  0.00     0.003 A 
ATOM      5  C4  UNL d   1      -1.649  -3.033   0.605  0.00  0.00    -0.005 A 
ATOM      6  C5  UNL d   1      -2.256  -1.800   0.834  0.00  0.00     0.003 A 
ATOM      7  C6  UNL d   1      -1.487  -0.635   0.853  0.00  0.00    -0.001 A 
ENDROOT
TORSDOF 0
ENDMDL
