MODEL 1
REMARK minimizedAffinity -4.81766987
REMARK minimizedRMSD -1
REMARK  0 active torsions:
REMARK  status: ('A' for Active; 'I' for Inactive)
ROOT
ATOM      1  C   UNL d   1       0.090   1.393  -0.520  0.00  0.00     0.078 C 
ATOM      2  C1  UNL d   1      -0.123   0.019   0.041  0.00  0.00    -0.077 A 
ATOM      3  C2  UNL d   1      -1.092  -0.216   1.024  0.00  0.00    -0.001 A 
ATOM      4  C3  UNL d   1      -1.273  -1.498   1.545  0.00  0.00     0.003 A 
ATOM      5  C4  UNL d   1      -0.486  -2.555   1.090  0.00  0.00    -0.005 A 
ATOM      6  C5  UNL d   1       0.482  -2.330   0.114  0.00  0.00     0.003 A 
ATOM      7  C6  UNL d   1       0.664  -1.049  -0.408  0.00  0.00    -0.001 A 
ENDROOT
TORSDOF 0
ENDMDL
