MODEL 1
REMARK minimizedAffinity -1.63039207
REMARK minimizedRMSD -1
REMARK  0 active torsions:
REMARK  status: ('A' for Active; 'I' for Inactive)
ROOT
ATOM      1  C   UNL d   1       2.344   3.501   1.814  0.00  0.00     0.078 C 
ATOM      2  C1  UNL d   1       1.844   2.768   0.605  0.00  0.00    -0.077 A 
ATOM      3  C2  UNL d   1       2.353   3.046  -0.669  0.00  0.00    -0.001 A 
ATOM      4  C3  UNL d   1       1.871   2.362  -1.786  0.00  0.00     0.003 A 
ATOM      5  C4  UNL d   1       0.876   1.397  -1.641  0.00  0.00    -0.005 A 
ATOM      6  C5  UNL d   1       0.362   1.115  -0.377  0.00  0.00     0.003 A 
ATOM      7  C6  UNL d   1       0.843   1.798   0.742  0.00  0.00    -0.001 A 
ENDROOT
TORSDOF 0
ENDMDL
