MODEL 1
REMARK minimizedAffinity -2.60814643
REMARK minimizedRMSD -1
REMARK  0 active torsions:
REMARK  status: ('A' for Active; 'I' for Inactive)
ROOT
ATOM      1  C   UNL d   1       0.889  -2.722  -0.136  0.00  0.00     0.078 C 
ATOM      2  C1  UNL d   1       0.649  -1.271  -0.427  0.00  0.00    -0.077 A 
ATOM      3  C2  UNL d   1       0.745  -0.771  -1.732  0.00  0.00    -0.001 A 
ATOM      4  C3  UNL d   1       0.528   0.584  -1.986  0.00  0.00     0.003 A 
ATOM      5  C4  UNL d   1       0.215   1.451  -0.941  0.00  0.00    -0.005 A 
ATOM      6  C5  UNL d   1       0.119   0.963   0.361  0.00  0.00     0.003 A 
ATOM      7  C6  UNL d   1       0.336  -0.391   0.617  0.00  0.00    -0.001 A 
ENDROOT
TORSDOF 0
ENDMDL
