MODEL 1
REMARK minimizedAffinity -4.84822416
REMARK minimizedRMSD -1
REMARK  0 active torsions:
REMARK  status: ('A' for Active; 'I' for Inactive)
ROOT
ATOM      1  C   UNL d   1       2.266   3.452  -1.536  0.00  0.00     0.078 C 
ATOM      2  C1  UNL d   1       1.922   3.240  -0.092  0.00  0.00    -0.077 A 
ATOM      3  C2  UNL d   1       2.342   4.145   0.890  0.00  0.00    -0.001 A 
ATOM      4  C3  UNL d   1       2.022   3.930   2.232  0.00  0.00     0.003 A 
ATOM      5  C4  UNL d   1       1.281   2.810   2.604  0.00  0.00    -0.005 A 
ATOM      6  C5  UNL d   1       0.860   1.903   1.634  0.00  0.00     0.003 A 
ATOM      7  C6  UNL d   1       1.179   2.116   0.292  0.00  0.00    -0.001 A 
ENDROOT
TORSDOF 0
ENDMDL
