MODEL 1
REMARK minimizedAffinity -5.87118721
REMARK minimizedRMSD -1
REMARK  0 active torsions:
REMARK  status: ('A' for Active; 'I' for Inactive)
ROOT
ATOM      1  C   UNL d   1       0.540   0.620  -0.100  0.00  0.00     0.078 C 
ATOM      2  C1  UNL d   1       0.357  -0.840  -0.390  0.00  0.00    -0.077 A 
ATOM      3  C2  UNL d   1       0.082  -1.750   0.638  0.00  0.00    -0.001 A 
ATOM      4  C3  UNL d   1      -0.076  -3.108   0.355  0.00  0.00     0.003 A 
ATOM      5  C4  UNL d   1       0.040  -3.568  -0.955  0.00  0.00    -0.005 A 
ATOM      6  C5  UNL d   1       0.315  -2.670  -1.984  0.00  0.00     0.003 A 
ATOM      7  C6  UNL d   1       0.474  -1.312  -1.703  0.00  0.00    -0.001 A 
ENDROOT
TORSDOF 0
ENDMDL
