MODEL 1
REMARK minimizedAffinity -5.09895229
REMARK minimizedRMSD -1
REMARK  0 active torsions:
REMARK  status: ('A' for Active; 'I' for Inactive)
ROOT
ATOM      1  C   UNL d   1       0.781  -2.637  -2.382  0.00  0.00     0.078 C 
ATOM      2  C1  UNL d   1       0.136  -2.074  -1.150  0.00  0.00    -0.077 A 
ATOM      3  C2  UNL d   1       0.216  -0.708  -0.855  0.00  0.00    -0.001 A 
ATOM      4  C3  UNL d   1      -0.381  -0.199   0.300  0.00  0.00     0.003 A 
ATOM      5  C4  UNL d   1      -1.060  -1.051   1.169  0.00  0.00    -0.005 A 
ATOM      6  C5  UNL d   1      -1.142  -2.412   0.885  0.00  0.00     0.003 A 
ATOM      7  C6  UNL d   1      -0.546  -2.922  -0.269  0.00  0.00    -0.001 A 
ENDROOT
TORSDOF 0
ENDMDL
