MODEL 1
REMARK minimizedAffinity -5.78645897
REMARK minimizedRMSD -1
REMARK  0 active torsions:
REMARK  status: ('A' for Active; 'I' for Inactive)
ROOT
ATOM      1  C   UNL d   1       0.416  -3.445   0.441  0.00  0.00     0.078 C 
ATOM      2  C1  UNL d   1      -0.094  -2.035   0.472  0.00  0.00    -0.077 A 
ATOM      3  C2  UNL d   1       0.567  -1.014  -0.221  0.00  0.00    -0.001 A 
ATOM      4  C3  UNL d   1       0.086   0.296  -0.176  0.00  0.00     0.003 A 
ATOM      5  C4  UNL d   1      -1.056   0.597   0.563  0.00  0.00    -0.005 A 
ATOM      6  C5  UNL d   1      -1.719  -0.413   1.258  0.00  0.00     0.003 A 
ATOM      7  C6  UNL d   1      -1.240  -1.723   1.214  0.00  0.00    -0.001 A 
ENDROOT
TORSDOF 0
ENDMDL
