MODEL 1
REMARK minimizedAffinity -3.28085208
REMARK minimizedRMSD -1
REMARK  0 active torsions:
REMARK  status: ('A' for Active; 'I' for Inactive)
ROOT
ATOM      1  C   UNL d   1      -1.472  -0.399   1.514  0.00  0.00     0.078 C 
ATOM      2  C1  UNL d   1      -0.739   0.371   0.457  0.00  0.00    -0.077 A 
ATOM      3  C2  UNL d   1      -0.569  -0.153  -0.830  0.00  0.00    -0.001 A 
ATOM      4  C3  UNL d   1       0.123   0.571  -1.802  0.00  0.00     0.003 A 
ATOM      5  C4  UNL d   1       0.653   1.823  -1.496  0.00  0.00    -0.005 A 
ATOM      6  C5  UNL d   1       0.491   2.352  -0.217  0.00  0.00     0.003 A 
ATOM      7  C6  UNL d   1      -0.201   1.629   0.756  0.00  0.00    -0.001 A 
ENDROOT
TORSDOF 0
ENDMDL
