MODEL 1
REMARK minimizedAffinity -5.15061092
REMARK minimizedRMSD -1
REMARK  0 active torsions:
REMARK  status: ('A' for Active; 'I' for Inactive)
ROOT
ATOM      1  C   UNL d   1      -0.444   1.338  -0.562  0.00  0.00     0.078 C 
ATOM      2  C1  UNL d   1      -0.184  -0.121  -0.335  0.00  0.00    -0.077 A 
ATOM      3  C2  UNL d   1      -0.786  -0.804   0.729  0.00  0.00    -0.001 A 
ATOM      4  C3  UNL d   1      -0.528  -2.160   0.934  0.00  0.00     0.003 A 
ATOM      5  C4  UNL d   1       0.334  -2.845   0.080  0.00  0.00    -0.005 A 
ATOM      6  C5  UNL d   1       0.940  -2.174  -0.980  0.00  0.00     0.003 A 
ATOM      7  C6  UNL d   1       0.683  -0.817  -1.187  0.00  0.00    -0.001 A 
ENDROOT
TORSDOF 0
ENDMDL
