MODEL 1
REMARK minimizedAffinity -5.51859713
REMARK minimizedRMSD -1
REMARK  0 active torsions:
REMARK  status: ('A' for Active; 'I' for Inactive)
ROOT
ATOM      1  C   UNL d   1       0.780  -2.969  -1.467  0.00  0.00     0.078 C 
ATOM      2  C1  UNL d   1       0.136  -2.069  -0.455  0.00  0.00    -0.077 A 
ATOM      3  C2  UNL d   1      -0.867  -2.545   0.399  0.00  0.00    -0.001 A 
ATOM      4  C3  UNL d   1      -1.465  -1.694   1.329  0.00  0.00     0.003 A 
ATOM      5  C4  UNL d   1      -1.067  -0.361   1.415  0.00  0.00    -0.005 A 
ATOM      6  C5  UNL d   1      -0.072   0.122   0.569  0.00  0.00     0.003 A 
ATOM      7  C6  UNL d   1       0.527  -0.728  -0.363  0.00  0.00    -0.001 A 
ENDROOT
TORSDOF 0
ENDMDL
