MODEL 1
REMARK minimizedAffinity -1.21771419
REMARK minimizedRMSD -1
REMARK  0 active torsions:
REMARK  status: ('A' for Active; 'I' for Inactive)
ROOT
ATOM      1  N1  IND d   1      -1.124  -0.227  -5.999  0.00  0.00    -0.196 N 
ATOM      2  C2  IND d   1      -1.622  -1.500  -5.959  0.00  0.00     0.054 A 
ATOM      3  C3  IND d   1      -1.147  -2.156  -4.877  0.00  0.00    -0.031 A 
ATOM      4  C4  IND d   1       0.376  -1.303  -2.985  0.00  0.00     0.051 A 
ATOM      5  C5  IND d   1       1.115  -0.219  -2.602  0.00  0.00    -0.031 A 
ATOM      6  C6  IND d   1       1.143   0.943  -3.346  0.00  0.00     0.015 A 
ATOM      7  C7  IND d   1       0.422   1.068  -4.500  0.00  0.00    -0.016 A 
ATOM      8  C8  IND d   1      -0.324  -0.034  -4.895  0.00  0.00    -0.047 A 
ATOM      9  C9  IND d   1      -0.323  -1.230  -4.166  0.00  0.00    -0.096 A 
ATOM     10  HN1 IND d   1      -1.285   0.356  -6.611  0.00  0.00     0.298 HD
ENDROOT
TORSDOF 0
ENDMDL
