MODEL 1
REMARK minimizedAffinity -4.64114571
REMARK minimizedRMSD -1
REMARK  0 active torsions:
REMARK  status: ('A' for Active; 'I' for Inactive)
ROOT
ATOM      1  N1  IND d   1      -1.615   0.971   2.246  0.00  0.00    -0.196 N 
ATOM      2  C2  IND d   1      -0.469   1.412   2.848  0.00  0.00     0.054 A 
ATOM      3  C3  IND d   1       0.594   1.217   2.035  0.00  0.00    -0.031 A 
ATOM      4  C4  IND d   1       0.670   0.285  -0.363  0.00  0.00     0.051 A 
ATOM      5  C5  IND d   1      -0.119  -0.284  -1.324  0.00  0.00    -0.031 A 
ATOM      6  C6  IND d   1      -1.475  -0.464  -1.141  0.00  0.00     0.015 A 
ATOM      7  C7  IND d   1      -2.097  -0.070   0.010  0.00  0.00    -0.016 A 
ATOM      8  C8  IND d   1      -1.298   0.501   0.990  0.00  0.00    -0.047 A 
ATOM      9  C9  IND d   1       0.086   0.647   0.827  0.00  0.00    -0.096 A 
ATOM     10  HN1 IND d   1      -2.401   0.986   2.593  0.00  0.00     0.298 HD
ENDROOT
TORSDOF 0
ENDMDL
