MODEL 1
REMARK minimizedAffinity -4.81593084
REMARK minimizedRMSD -1
REMARK  0 active torsions:
REMARK  status: ('A' for Active; 'I' for Inactive)
ROOT
ATOM      1  N1  IND d   1       1.343  -0.073  -0.407  0.00  0.00    -0.196 N 
ATOM      2  C2  IND d   1       0.572  -0.503  -1.452  0.00  0.00     0.054 A 
ATOM      3  C3  IND d   1      -0.738  -0.440  -1.126  0.00  0.00    -0.031 A 
ATOM      4  C4  IND d   1      -1.849   0.430   1.027  0.00  0.00     0.051 A 
ATOM      5  C5  IND d   1      -1.556   0.892   2.279  0.00  0.00    -0.031 A 
ATOM      6  C6  IND d   1      -0.256   1.062   2.708  0.00  0.00     0.015 A 
ATOM      7  C7  IND d   1       0.805   0.786   1.892  0.00  0.00    -0.016 A 
ATOM      8  C8  IND d   1       0.511   0.309   0.622  0.00  0.00    -0.047 A 
ATOM      9  C9  IND d   1      -0.806   0.095   0.197  0.00  0.00    -0.096 A 
ATOM     10  HN1 IND d   1       2.202  -0.047  -0.395  0.00  0.00     0.298 HD
ENDROOT
TORSDOF 0
ENDMDL
