MODEL 1
REMARK minimizedAffinity -2.83866358
REMARK minimizedRMSD -1
REMARK  0 active torsions:
REMARK  status: ('A' for Active; 'I' for Inactive)
ROOT
ATOM      1  N1  IND d   1       0.615  -0.593  -0.434  0.00  0.00    -0.196 N 
ATOM      2  C2  IND d   1      -0.482  -1.042  -1.115  0.00  0.00     0.054 A 
ATOM      3  C3  IND d   1      -1.607  -0.809  -0.401  0.00  0.00    -0.031 A 
ATOM      4  C4  IND d   1      -1.889   0.387   1.861  0.00  0.00     0.051 A 
ATOM      5  C5  IND d   1      -1.172   0.939   2.885  0.00  0.00    -0.031 A 
ATOM      6  C6  IND d   1       0.206   1.014   2.852  0.00  0.00     0.015 A 
ATOM      7  C7  IND d   1       0.919   0.546   1.785  0.00  0.00    -0.016 A 
ATOM      8  C8  IND d   1       0.194  -0.022   0.747  0.00  0.00    -0.047 A 
ATOM      9  C9  IND d   1      -1.201  -0.139   0.794  0.00  0.00    -0.096 A 
ATOM     10  HN1 IND d   1       1.430  -0.656  -0.699  0.00  0.00     0.298 HD
ENDROOT
TORSDOF 0
ENDMDL
