MODEL 1
REMARK minimizedAffinity -0.82916373
REMARK minimizedRMSD -1
REMARK  0 active torsions:
REMARK  status: ('A' for Active; 'I' for Inactive)
ROOT
ATOM      1  N1  IND d   1       1.097   0.723  -0.497  0.00  0.00    -0.196 N 
ATOM      2  C2  IND d   1       0.738  -0.277  -1.357  0.00  0.00     0.054 A 
ATOM      3  C3  IND d   1      -0.399  -0.874  -0.935  0.00  0.00    -0.031 A 
ATOM      4  C4  IND d   1      -1.894  -0.305   1.082  0.00  0.00     0.051 A 
ATOM      5  C5  IND d   1      -1.959   0.506   2.180  0.00  0.00    -0.031 A 
ATOM      6  C6  IND d   1      -0.990   1.452   2.446  0.00  0.00     0.015 A 
ATOM      7  C7  IND d   1       0.079   1.630   1.614  0.00  0.00    -0.016 A 
ATOM      8  C8  IND d   1       0.151   0.804   0.501  0.00  0.00    -0.047 A 
ATOM      9  C9  IND d   1      -0.807  -0.187   0.249  0.00  0.00    -0.096 A 
ATOM     10  HN1 IND d   1       1.796   1.219  -0.568  0.00  0.00     0.298 HD
ENDROOT
TORSDOF 0
ENDMDL
