MODEL 1
REMARK minimizedAffinity -0.881847918
REMARK minimizedRMSD -1
REMARK  0 active torsions:
REMARK  status: ('A' for Active; 'I' for Inactive)
ROOT
ATOM      1  N1  IND d   1       1.350  -0.305   0.894  0.00  0.00    -0.196 N 
ATOM      2  C2  IND d   1       1.380  -0.912  -0.330  0.00  0.00     0.054 A 
ATOM      3  C3  IND d   1       0.159  -0.867  -0.908  0.00  0.00    -0.031 A 
ATOM      4  C4  IND d   1      -2.007   0.243  -0.068  0.00  0.00     0.051 A 
ATOM      5  C5  IND d   1      -2.537   0.889   1.013  0.00  0.00    -0.031 A 
ATOM      6  C6  IND d   1      -1.783   1.178   2.132  0.00  0.00     0.015 A 
ATOM      7  C7  IND d   1      -0.461   0.840   2.206  0.00  0.00    -0.016 A 
ATOM      8  C8  IND d   1       0.079   0.178   1.113  0.00  0.00    -0.047 A 
ATOM      9  C9  IND d   1      -0.693  -0.156  -0.008  0.00  0.00    -0.096 A 
ATOM     10  HN1 IND d   1       2.014  -0.237   1.437  0.00  0.00     0.298 HD
ENDROOT
TORSDOF 0
ENDMDL
