MODEL 1
REMARK minimizedAffinity -5.79693556
REMARK minimizedRMSD -1
REMARK  0 active torsions:
REMARK  status: ('A' for Active; 'I' for Inactive)
ROOT
ATOM      1  N1  IND d   1       1.596  -1.173   0.911  0.00  0.00    -0.196 N 
ATOM      2  C2  IND d   1       1.069  -1.540  -0.295  0.00  0.00     0.054 A 
ATOM      3  C3  IND d   1      -0.163  -1.005  -0.453  0.00  0.00    -0.031 A 
ATOM      4  C4  IND d   1      -1.466   0.585   1.097  0.00  0.00     0.051 A 
ATOM      5  C5  IND d   1      -1.410   1.174   2.329  0.00  0.00    -0.031 A 
ATOM      6  C6  IND d   1      -0.326   1.010   3.167  0.00  0.00     0.015 A 
ATOM      7  C7  IND d   1       0.752   0.256   2.798  0.00  0.00    -0.016 A 
ATOM      8  C8  IND d   1       0.696  -0.349   1.551  0.00  0.00    -0.047 A 
ATOM      9  C9  IND d   1      -0.420  -0.221   0.713  0.00  0.00    -0.096 A 
ATOM     10  HN1 IND d   1       2.361  -1.416   1.219  0.00  0.00     0.298 HD
ENDROOT
TORSDOF 0
ENDMDL
