MODEL 1
REMARK minimizedAffinity -4.5283103
REMARK minimizedRMSD -1
REMARK  0 active torsions:
REMARK  status: ('A' for Active; 'I' for Inactive)
ROOT
ATOM      1  N1  IND d   1      -1.644   0.801   2.490  0.00  0.00    -0.196 N 
ATOM      2  C2  IND d   1      -0.777   0.943   3.538  0.00  0.00     0.054 A 
ATOM      3  C3  IND d   1       0.447   0.480   3.201  0.00  0.00    -0.031 A 
ATOM      4  C4  IND d   1       1.280  -0.459   0.954  0.00  0.00     0.051 A 
ATOM      5  C5  IND d   1       0.845  -0.817  -0.291  0.00  0.00    -0.031 A 
ATOM      6  C6  IND d   1      -0.467  -0.649  -0.682  0.00  0.00     0.015 A 
ATOM      7  C7  IND d   1      -1.396  -0.102   0.159  0.00  0.00    -0.016 A 
ATOM      8  C8  IND d   1      -0.960   0.256   1.426  0.00  0.00    -0.047 A 
ATOM      9  C9  IND d   1       0.362   0.048   1.842  0.00  0.00    -0.096 A 
ATOM     10  HN1 IND d   1      -2.477   1.015   2.495  0.00  0.00     0.298 HD
ENDROOT
TORSDOF 0
ENDMDL
