MODEL 1
REMARK minimizedAffinity -4.77376795
REMARK minimizedRMSD -1
REMARK  0 active torsions:
REMARK  status: ('A' for Active; 'I' for Inactive)
ROOT
ATOM      1  N1  IND d   1      -0.736  -0.612  -1.173  0.00  0.00    -0.196 N 
ATOM      2  C2  IND d   1       0.566  -0.836  -1.524  0.00  0.00     0.054 A 
ATOM      3  C3  IND d   1       1.399  -0.367  -0.568  0.00  0.00    -0.031 A 
ATOM      4  C4  IND d   1       0.841   0.712   1.702  0.00  0.00     0.051 A 
ATOM      5  C5  IND d   1      -0.210   1.160   2.452  0.00  0.00    -0.031 A 
ATOM      6  C6  IND d   1      -1.516   1.035   2.025  0.00  0.00     0.015 A 
ATOM      7  C7  IND d   1      -1.823   0.445   0.832  0.00  0.00    -0.016 A 
ATOM      8  C8  IND d   1      -0.758  -0.005   0.064  0.00  0.00    -0.047 A 
ATOM      9  C9  IND d   1       0.572   0.158   0.472  0.00  0.00    -0.096 A 
ATOM     10  HN1 IND d   1      -1.425  -0.815  -1.644  0.00  0.00     0.298 HD
ENDROOT
TORSDOF 0
ENDMDL
