MODEL 1
REMARK minimizedAffinity -1.80473542
REMARK minimizedRMSD -1
REMARK  0 active torsions:
REMARK  status: ('A' for Active; 'I' for Inactive)
ROOT
ATOM      1  N1  IND d   1       1.834  -1.009   0.049  0.00  0.00    -0.196 N 
ATOM      2  C2  IND d   1       2.618  -0.677   1.119  0.00  0.00     0.054 A 
ATOM      3  C3  IND d   1       1.891  -0.015   2.047  0.00  0.00    -0.031 A 
ATOM      4  C4  IND d   1      -0.622   0.543   2.063  0.00  0.00     0.051 A 
ATOM      5  C5  IND d   1      -1.745   0.476   1.288  0.00  0.00    -0.031 A 
ATOM      6  C6  IND d   1      -1.733  -0.104   0.036  0.00  0.00     0.015 A 
ATOM      7  C7  IND d   1      -0.595  -0.651  -0.485  0.00  0.00    -0.016 A 
ATOM      8  C8  IND d   1       0.549  -0.578   0.297  0.00  0.00    -0.047 A 
ATOM      9  C9  IND d   1       0.553   0.047   1.550  0.00  0.00    -0.096 A 
ATOM     10  HN1 IND d   1       2.099  -1.419  -0.659  0.00  0.00     0.298 HD
ENDROOT
TORSDOF 0
ENDMDL
