MODEL 1
REMARK minimizedAffinity -0.227865532
REMARK minimizedRMSD -1
REMARK  0 active torsions:
REMARK  status: ('A' for Active; 'I' for Inactive)
ROOT
ATOM      1  C   UNL d   1       0.357   3.360  -3.130  0.00  0.00     0.078 C 
ATOM      2  C1  UNL d   1      -0.679   2.582  -2.376  0.00  0.00    -0.077 A 
ATOM      3  C2  UNL d   1      -0.782   2.681  -0.983  0.00  0.00    -0.001 A 
ATOM      4  C3  UNL d   1      -1.745   1.943  -0.292  0.00  0.00     0.003 A 
ATOM      5  C4  UNL d   1      -2.612   1.101  -0.986  0.00  0.00    -0.005 A 
ATOM      6  C5  UNL d   1      -2.515   0.994  -2.372  0.00  0.00     0.003 A 
ATOM      7  C6  UNL d   1      -1.552   1.731  -3.064  0.00  0.00    -0.001 A 
ENDROOT
TORSDOF 0
ENDMDL
