MODEL 1
REMARK minimizedAffinity -1.3848052
REMARK minimizedRMSD -1
REMARK  0 active torsions:
REMARK  status: ('A' for Active; 'I' for Inactive)
ROOT
ATOM      1  C   UNL d   1       3.103  -1.128   0.036  0.00  0.00     0.078 C 
ATOM      2  C1  UNL d   1       1.641  -1.375   0.259  0.00  0.00    -0.077 A 
ATOM      3  C2  UNL d   1       0.905  -0.589   1.154  0.00  0.00    -0.001 A 
ATOM      4  C3  UNL d   1      -0.454  -0.837   1.359  0.00  0.00     0.003 A 
ATOM      5  C4  UNL d   1      -1.087  -1.871   0.674  0.00  0.00    -0.005 A 
ATOM      6  C5  UNL d   1      -0.362  -2.660  -0.217  0.00  0.00     0.003 A 
ATOM      7  C6  UNL d   1       0.996  -2.414  -0.423  0.00  0.00    -0.001 A 
ENDROOT
TORSDOF 0
ENDMDL
