MODEL 1
REMARK minimizedAffinity -3.13593221
REMARK minimizedRMSD -1
REMARK  0 active torsions:
REMARK  status: ('A' for Active; 'I' for Inactive)
ROOT
ATOM      1  C   UNL d   1      -1.139  -1.127   1.150  0.00  0.00     0.078 C 
ATOM      2  C1  UNL d   1       0.222  -1.572   0.705  0.00  0.00    -0.077 A 
ATOM      3  C2  UNL d   1       1.327  -0.716   0.797  0.00  0.00    -0.001 A 
ATOM      4  C3  UNL d   1       2.586  -1.140   0.370  0.00  0.00     0.003 A 
ATOM      5  C4  UNL d   1       2.753  -2.420  -0.153  0.00  0.00    -0.005 A 
ATOM      6  C5  UNL d   1       1.660  -3.278  -0.251  0.00  0.00     0.003 A 
ATOM      7  C6  UNL d   1       0.399  -2.856   0.176  0.00  0.00    -0.001 A 
ENDROOT
TORSDOF 0
ENDMDL
