MODEL 1
REMARK minimizedAffinity -0.890026152
REMARK minimizedRMSD -1
REMARK  0 active torsions:
REMARK  status: ('A' for Active; 'I' for Inactive)
ROOT
ATOM      1  C   UNL d   1       0.726  -3.387  -0.981  0.00  0.00     0.078 C 
ATOM      2  C1  UNL d   1       0.565  -2.230  -0.040  0.00  0.00    -0.077 A 
ATOM      3  C2  UNL d   1      -0.705  -1.761   0.315  0.00  0.00    -0.001 A 
ATOM      4  C3  UNL d   1      -0.840  -0.677   1.185  0.00  0.00     0.003 A 
ATOM      5  C4  UNL d   1       0.292  -0.053   1.705  0.00  0.00    -0.005 A 
ATOM      6  C5  UNL d   1       1.561  -0.512   1.356  0.00  0.00     0.003 A 
ATOM      7  C6  UNL d   1       1.697  -1.595   0.486  0.00  0.00    -0.001 A 
ENDROOT
TORSDOF 0
ENDMDL
