MODEL 1
REMARK minimizedAffinity 3.00298572
REMARK minimizedRMSD -1
REMARK  0 active torsions:
REMARK  status: ('A' for Active; 'I' for Inactive)
ROOT
ATOM      1  C   UNL d   1      -0.740  -1.150   0.235  0.00  0.00     0.078 C 
ATOM      2  C1  UNL d   1       0.493  -0.792   1.009  0.00  0.00    -0.077 A 
ATOM      3  C2  UNL d   1       1.688  -0.471   0.353  0.00  0.00    -0.001 A 
ATOM      4  C3  UNL d   1       2.831  -0.149   1.087  0.00  0.00     0.003 A 
ATOM      5  C4  UNL d   1       2.791  -0.146   2.480  0.00  0.00    -0.005 A 
ATOM      6  C5  UNL d   1       1.607  -0.465   3.141  0.00  0.00     0.003 A 
ATOM      7  C6  UNL d   1       0.463  -0.788   2.409  0.00  0.00    -0.001 A 
ENDROOT
TORSDOF 0
ENDMDL
