MODEL 1
REMARK minimizedAffinity 1.26617908
REMARK minimizedRMSD -1
REMARK  0 active torsions:
REMARK  status: ('A' for Active; 'I' for Inactive)
ROOT
ATOM      1  C   UNL d   1       2.653   0.158   1.588  0.00  0.00     0.078 C 
ATOM      2  C1  UNL d   1       1.309  -0.413   1.249  0.00  0.00    -0.077 A 
ATOM      3  C2  UNL d   1       1.193  -1.606   0.525  0.00  0.00    -0.001 A 
ATOM      4  C3  UNL d   1      -0.065  -2.121   0.208  0.00  0.00     0.003 A 
ATOM      5  C4  UNL d   1      -1.217  -1.449   0.610  0.00  0.00    -0.005 A 
ATOM      6  C5  UNL d   1      -1.113  -0.260   1.329  0.00  0.00     0.003 A 
ATOM      7  C6  UNL d   1       0.145   0.256   1.647  0.00  0.00    -0.001 A 
ENDROOT
TORSDOF 0
ENDMDL
