MODEL 1
REMARK minimizedAffinity 0.501571178
REMARK minimizedRMSD -1
REMARK  0 active torsions:
REMARK  status: ('A' for Active; 'I' for Inactive)
ROOT
ATOM      1  C   UNL d   1       2.973   0.710   2.140  0.00  0.00     0.078 C 
ATOM      2  C1  UNL d   1       1.866   0.004   1.416  0.00  0.00    -0.077 A 
ATOM      3  C2  UNL d   1       2.125  -0.761   0.272  0.00  0.00    -0.001 A 
ATOM      4  C3  UNL d   1       1.083  -1.404  -0.398  0.00  0.00     0.003 A 
ATOM      5  C4  UNL d   1      -0.225  -1.289   0.068  0.00  0.00    -0.005 A 
ATOM      6  C5  UNL d   1      -0.493  -0.529   1.205  0.00  0.00     0.003 A 
ATOM      7  C6  UNL d   1       0.548   0.116   1.876  0.00  0.00    -0.001 A 
ENDROOT
TORSDOF 0
ENDMDL
