MODEL 1
REMARK minimizedAffinity -1.40899265
REMARK minimizedRMSD -1
REMARK  0 active torsions:
REMARK  status: ('A' for Active; 'I' for Inactive)
ROOT
ATOM      1  C   UNL d   1      -1.068  -0.692   1.044  0.00  0.00     0.078 C 
ATOM      2  C1  UNL d   1       0.105  -1.406   0.442  0.00  0.00    -0.077 A 
ATOM      3  C2  UNL d   1       1.324  -0.746   0.240  0.00  0.00    -0.001 A 
ATOM      4  C3  UNL d   1       2.405  -1.420  -0.330  0.00  0.00     0.003 A 
ATOM      5  C4  UNL d   1       2.278  -2.756  -0.705  0.00  0.00    -0.005 A 
ATOM      6  C5  UNL d   1       1.068  -3.420  -0.511  0.00  0.00     0.003 A 
ATOM      7  C6  UNL d   1      -0.014  -2.748   0.059  0.00  0.00    -0.001 A 
ENDROOT
TORSDOF 0
ENDMDL
