MODEL 1
REMARK minimizedAffinity -4.58022642
REMARK minimizedRMSD -1
REMARK  0 active torsions:
REMARK  status: ('A' for Active; 'I' for Inactive)
ROOT
ATOM      1  C   UNL d   1       2.351  -3.968  -0.436  0.00  0.00     0.078 C 
ATOM      2  C1  UNL d   1       1.535  -2.773  -0.040  0.00  0.00    -0.077 A 
ATOM      3  C2  UNL d   1       2.114  -1.501   0.047  0.00  0.00    -0.001 A 
ATOM      4  C3  UNL d   1       1.344  -0.400   0.425  0.00  0.00     0.003 A 
ATOM      5  C4  UNL d   1      -0.008  -0.560   0.721  0.00  0.00    -0.005 A 
ATOM      6  C5  UNL d   1      -0.592  -1.822   0.640  0.00  0.00     0.003 A 
ATOM      7  C6  UNL d   1       0.176  -2.925   0.261  0.00  0.00    -0.001 A 
ENDROOT
TORSDOF 0
ENDMDL
