MODEL 1
REMARK minimizedAffinity 5.7290659
REMARK minimizedRMSD -1
REMARK  0 active torsions:
REMARK  status: ('A' for Active; 'I' for Inactive)
ROOT
ATOM      1  C   UNL d   1       1.893   0.058   2.450  0.00  0.00     0.078 C 
ATOM      2  C1  UNL d   1       1.049  -0.657   1.438  0.00  0.00    -0.077 A 
ATOM      3  C2  UNL d   1      -0.291  -0.304   1.237  0.00  0.00    -0.001 A 
ATOM      4  C3  UNL d   1      -1.068  -0.984   0.298  0.00  0.00     0.003 A 
ATOM      5  C4  UNL d   1      -0.514  -2.024  -0.447  0.00  0.00    -0.005 A 
ATOM      6  C5  UNL d   1       0.818  -2.384  -0.253  0.00  0.00     0.003 A 
ATOM      7  C6  UNL d   1       1.596  -1.704   0.686  0.00  0.00    -0.001 A 
ENDROOT
TORSDOF 0
ENDMDL
