MODEL 1
REMARK minimizedAffinity -0.671803951
REMARK minimizedRMSD -1
REMARK  0 active torsions:
REMARK  status: ('A' for Active; 'I' for Inactive)
ROOT
ATOM      1  C   UNL d   1       1.195  -0.716   3.415  0.00  0.00     0.078 C 
ATOM      2  C1  UNL d   1       0.868  -1.155   2.019  0.00  0.00    -0.077 A 
ATOM      3  C2  UNL d   1      -0.111  -2.127   1.778  0.00  0.00    -0.001 A 
ATOM      4  C3  UNL d   1      -0.398  -2.533   0.474  0.00  0.00     0.003 A 
ATOM      5  C4  UNL d   1       0.292  -1.974  -0.600  0.00  0.00    -0.005 A 
ATOM      6  C5  UNL d   1       1.270  -1.009  -0.371  0.00  0.00     0.003 A 
ATOM      7  C6  UNL d   1       1.558  -0.601   0.933  0.00  0.00    -0.001 A 
ENDROOT
TORSDOF 0
ENDMDL
