MODEL 1
REMARK minimizedAffinity -4.36800241
REMARK minimizedRMSD -1
REMARK  0 active torsions:
REMARK  status: ('A' for Active; 'I' for Inactive)
ROOT
ATOM      1  C   UNL d   1       2.110  -3.610  -0.674  0.00  0.00     0.078 C 
ATOM      2  C1  UNL d   1       1.323  -2.484  -0.072  0.00  0.00    -0.077 A 
ATOM      3  C2  UNL d   1       1.893  -1.217   0.102  0.00  0.00    -0.001 A 
ATOM      4  C3  UNL d   1       1.151  -0.182   0.672  0.00  0.00     0.003 A 
ATOM      5  C4  UNL d   1      -0.165  -0.403   1.074  0.00  0.00    -0.005 A 
ATOM      6  C5  UNL d   1      -0.740  -1.661   0.906  0.00  0.00     0.003 A 
ATOM      7  C6  UNL d   1       0.000  -2.698   0.337  0.00  0.00    -0.001 A 
ENDROOT
TORSDOF 0
ENDMDL
