MODEL 1
REMARK minimizedAffinity -0.270227402
REMARK minimizedRMSD -1
REMARK  0 active torsions:
REMARK  status: ('A' for Active; 'I' for Inactive)
ROOT
ATOM      1  C   UNL d   1      -1.085  -0.255   1.425  0.00  0.00     0.078 C 
ATOM      2  C1  UNL d   1       0.001  -1.008   0.715  0.00  0.00    -0.077 A 
ATOM      3  C2  UNL d   1       1.172  -0.363   0.299  0.00  0.00    -0.001 A 
ATOM      4  C3  UNL d   1       2.170  -1.074  -0.369  0.00  0.00     0.003 A 
ATOM      5  C4  UNL d   1       2.007  -2.433  -0.628  0.00  0.00    -0.005 A 
ATOM      6  C5  UNL d   1       0.844  -3.083  -0.220  0.00  0.00     0.003 A 
ATOM      7  C6  UNL d   1      -0.156  -2.374   0.448  0.00  0.00    -0.001 A 
ENDROOT
TORSDOF 0
ENDMDL
