MODEL 1
REMARK minimizedAffinity 1.83999991
REMARK minimizedRMSD -1
REMARK  0 active torsions:
REMARK  status: ('A' for Active; 'I' for Inactive)
ROOT
ATOM      1  C   UNL d   1       1.475   0.371  -2.109  0.00  0.00     0.020 A 
ATOM      2  C1  UNL d   1       1.002   1.492  -2.790  0.00  0.00     0.020 A 
ATOM      3  C2  UNL d   1       1.273   2.772  -2.301  0.00  0.00     0.034 A 
ATOM      4  C3  UNL d   1       2.020   2.934  -1.129  0.00  0.00     0.017 A 
ATOM      5  C4  UNL d   1       2.495   1.808  -0.446  0.00  0.00     0.017 A 
ATOM      6  C5  UNL d   1       2.220   0.529  -0.939  0.00  0.00     0.034 A 
ATOM      7 Cl   UNL d   1       3.423   1.929   1.007  0.00  0.00    -0.070 Cl
ATOM      8 Cl1  UNL d   1       2.318   4.546  -0.582  0.00  0.00    -0.070 Cl
ENDROOT
TORSDOF 0
ENDMDL
