MODEL 1
REMARK minimizedAffinity 1.90835738
REMARK minimizedRMSD -1
REMARK  0 active torsions:
REMARK  status: ('A' for Active; 'I' for Inactive)
ROOT
ATOM      1  C   UNL d   1       1.058   1.868  -1.789  0.00  0.00     0.020 A 
ATOM      2  C1  UNL d   1       1.277   1.231  -0.568  0.00  0.00     0.020 A 
ATOM      3  C2  UNL d   1       1.510   1.989   0.582  0.00  0.00     0.034 A 
ATOM      4  C3  UNL d   1       1.525   3.387   0.513  0.00  0.00     0.017 A 
ATOM      5  C4  UNL d   1       1.305   4.024  -0.713  0.00  0.00     0.017 A 
ATOM      6  C5  UNL d   1       1.072   3.261  -1.861  0.00  0.00     0.034 A 
ATOM      7 Cl   UNL d   1       1.308   5.745  -0.876  0.00  0.00    -0.070 Cl
ATOM      8 Cl1  UNL d   1       1.818   4.260   1.975  0.00  0.00    -0.070 Cl
ENDROOT
TORSDOF 0
ENDMDL
