MODEL 1
REMARK minimizedAffinity 6.07478142
REMARK minimizedRMSD -1
REMARK  0 active torsions:
REMARK  status: ('A' for Active; 'I' for Inactive)
ROOT
ATOM      1  C   UNL d   1       1.911   0.180   0.495  0.00  0.00     0.020 A 
ATOM      2  C1  UNL d   1       1.559  -0.118  -0.821  0.00  0.00     0.020 A 
ATOM      3  C2  UNL d   1       1.070   0.888  -1.658  0.00  0.00     0.034 A 
ATOM      4  C3  UNL d   1       0.933   2.196  -1.179  0.00  0.00     0.017 A 
ATOM      5  C4  UNL d   1       1.287   2.494   0.141  0.00  0.00     0.017 A 
ATOM      6  C5  UNL d   1       1.775   1.483   0.975  0.00  0.00     0.034 A 
ATOM      7 Cl   UNL d   1       1.145   4.084   0.803  0.00  0.00    -0.070 Cl
ATOM      8 Cl1  UNL d   1       0.323   3.390  -2.269  0.00  0.00    -0.070 Cl
ENDROOT
TORSDOF 0
ENDMDL
