MODEL 1
REMARK minimizedAffinity -2.31885219
REMARK minimizedRMSD -1
REMARK  0 active torsions:
REMARK  status: ('A' for Active; 'I' for Inactive)
ROOT
ATOM      1  C   UNL d   1       0.856   0.876  -1.896  0.00  0.00     0.020 A 
ATOM      2  C1  UNL d   1       1.173   0.136  -0.758  0.00  0.00     0.020 A 
ATOM      3  C2  UNL d   1       1.476   0.791   0.438  0.00  0.00     0.034 A 
ATOM      4  C3  UNL d   1       1.463   2.189   0.498  0.00  0.00     0.017 A 
ATOM      5  C4  UNL d   1       1.145   2.931  -0.646  0.00  0.00     0.017 A 
ATOM      6  C5  UNL d   1       0.842   2.270  -1.841  0.00  0.00     0.034 A 
ATOM      7 Cl   UNL d   1       1.109   4.659  -0.650  0.00  0.00    -0.070 Cl
ATOM      8 Cl1  UNL d   1       1.848   2.932   2.009  0.00  0.00    -0.070 Cl
ENDROOT
TORSDOF 0
ENDMDL
