MODEL 1
REMARK minimizedAffinity 2.63684869
REMARK minimizedRMSD -1
REMARK  0 active torsions:
REMARK  status: ('A' for Active; 'I' for Inactive)
ROOT
ATOM      1  C   UNL d   1      -3.379   1.507   2.478  0.00  0.00     0.020 A 
ATOM      2  C1  UNL d   1      -3.272   2.691   1.749  0.00  0.00     0.020 A 
ATOM      3  C2  UNL d   1      -2.682   3.816   2.328  0.00  0.00     0.034 A 
ATOM      4  C3  UNL d   1      -2.197   3.761   3.640  0.00  0.00     0.017 A 
ATOM      5  C4  UNL d   1      -2.305   2.572   4.371  0.00  0.00     0.017 A 
ATOM      6  C5  UNL d   1      -2.896   1.448   3.786  0.00  0.00     0.034 A 
ATOM      7 Cl   UNL d   1      -1.730   2.427   5.994  0.00  0.00    -0.070 Cl
ATOM      8 Cl1  UNL d   1      -1.480   5.191   4.293  0.00  0.00    -0.070 Cl
ENDROOT
TORSDOF 0
ENDMDL
