MODEL 1
REMARK minimizedAffinity 5.69133043
REMARK minimizedRMSD -1
REMARK  0 active torsions:
REMARK  status: ('A' for Active; 'I' for Inactive)
ROOT
ATOM      1  C   UNL d   1       0.785   2.734  -1.307  0.00  0.00     0.020 A 
ATOM      2  C1  UNL d   1       1.269   2.588  -0.007  0.00  0.00     0.020 A 
ATOM      3  C2  UNL d   1       1.780   1.358   0.413  0.00  0.00     0.034 A 
ATOM      4  C3  UNL d   1       1.807   0.270  -0.466  0.00  0.00     0.017 A 
ATOM      5  C4  UNL d   1       1.321   0.418  -1.770  0.00  0.00     0.017 A 
ATOM      6  C5  UNL d   1       0.811   1.651  -2.186  0.00  0.00     0.034 A 
ATOM      7 Cl   UNL d   1       1.322  -0.880  -2.913  0.00  0.00    -0.070 Cl
ATOM      8 Cl1  UNL d   1       2.453  -1.222   0.121  0.00  0.00    -0.070 Cl
ENDROOT
TORSDOF 0
ENDMDL
