MODEL 1
REMARK minimizedAffinity 1.13289976
REMARK minimizedRMSD -1
REMARK  0 active torsions:
REMARK  status: ('A' for Active; 'I' for Inactive)
ROOT
ATOM      1  C   UNL d   1       1.724  -1.506  -1.249  0.00  0.00     0.020 A 
ATOM      2  C1  UNL d   1       1.827  -0.878  -2.490  0.00  0.00     0.020 A 
ATOM      3  C2  UNL d   1       1.694   0.509  -2.584  0.00  0.00     0.034 A 
ATOM      4  C3  UNL d   1       1.457   1.273  -1.435  0.00  0.00     0.017 A 
ATOM      5  C4  UNL d   1       1.354   0.642  -0.190  0.00  0.00     0.017 A 
ATOM      6  C5  UNL d   1       1.488  -0.747  -0.102  0.00  0.00     0.034 A 
ATOM      7 Cl   UNL d   1       1.062   1.518   1.271  0.00  0.00    -0.070 Cl
ATOM      8 Cl1  UNL d   1       1.303   2.983  -1.626  0.00  0.00    -0.070 Cl
ENDROOT
TORSDOF 0
ENDMDL
