MODEL 1
REMARK minimizedAffinity -3.17062426
REMARK minimizedRMSD -1
REMARK  0 active torsions:
REMARK  status: ('A' for Active; 'I' for Inactive)
ROOT
ATOM      1  C   UNL d   1       1.087   3.520  -1.713  0.00  0.00     0.020 A 
ATOM      2  C1  UNL d   1       1.136   4.166  -0.479  0.00  0.00     0.020 A 
ATOM      3  C2  UNL d   1       1.277   3.420   0.694  0.00  0.00     0.034 A 
ATOM      4  C3  UNL d   1       1.368   2.025   0.634  0.00  0.00     0.017 A 
ATOM      5  C4  UNL d   1       1.319   1.378  -0.605  0.00  0.00     0.017 A 
ATOM      6  C5  UNL d   1       1.178   2.129  -1.777  0.00  0.00     0.034 A 
ATOM      7 Cl   UNL d   1       1.425  -0.341  -0.759  0.00  0.00    -0.070 Cl
ATOM      8 Cl1  UNL d   1       1.541   1.167   2.124  0.00  0.00    -0.070 Cl
ENDROOT
TORSDOF 0
ENDMDL
