MODEL 1
REMARK minimizedAffinity -1.21796012
REMARK minimizedRMSD -1
REMARK  0 active torsions:
REMARK  status: ('A' for Active; 'I' for Inactive)
ROOT
ATOM      1  C   UNL d   1       1.204   3.805  -1.116  0.00  0.00     0.020 A 
ATOM      2  C1  UNL d   1       1.080   3.005  -2.251  0.00  0.00     0.020 A 
ATOM      3  C2  UNL d   1       1.028   1.616  -2.124  0.00  0.00     0.034 A 
ATOM      4  C3  UNL d   1       1.100   1.022  -0.858  0.00  0.00     0.017 A 
ATOM      5  C4  UNL d   1       1.224   1.825   0.281  0.00  0.00     0.017 A 
ATOM      6  C5  UNL d   1       1.276   3.216   0.147  0.00  0.00     0.034 A 
ATOM      7 Cl   UNL d   1       1.319   1.165   1.875  0.00  0.00    -0.070 Cl
ATOM      8 Cl1  UNL d   1       1.029  -0.703  -0.775  0.00  0.00    -0.070 Cl
ENDROOT
TORSDOF 0
ENDMDL
