MODEL 1
REMARK minimizedAffinity 2.73451138
REMARK minimizedRMSD -1
REMARK  0 active torsions:
REMARK  status: ('A' for Active; 'I' for Inactive)
ROOT
ATOM      1  C   UNL d   1       1.711   0.997  -2.290  0.00  0.00     0.020 A 
ATOM      2  C1  UNL d   1       0.801   1.612  -1.431  0.00  0.00     0.020 A 
ATOM      3  C2  UNL d   1       0.877   1.385  -0.055  0.00  0.00     0.034 A 
ATOM      4  C3  UNL d   1       1.864   0.541   0.466  0.00  0.00     0.017 A 
ATOM      5  C4  UNL d   1       2.777  -0.076  -0.397  0.00  0.00     0.017 A 
ATOM      6  C5  UNL d   1       2.697   0.155  -1.774  0.00  0.00     0.034 A 
ATOM      7 Cl   UNL d   1       4.023  -1.130   0.171  0.00  0.00    -0.070 Cl
ATOM      8 Cl1  UNL d   1       1.899   0.305   2.177  0.00  0.00    -0.070 Cl
ENDROOT
TORSDOF 0
ENDMDL
