MODEL 1
REMARK minimizedAffinity 2.42166018
REMARK minimizedRMSD -1
REMARK  0 active torsions:
REMARK  status: ('A' for Active; 'I' for Inactive)
ROOT
ATOM      1  C   UNL d   1       1.147  -0.470  -0.150  0.00  0.00     0.020 A 
ATOM      2  C1  UNL d   1       0.956  -0.323  -1.523  0.00  0.00     0.020 A 
ATOM      3  C2  UNL d   1       0.815   0.952  -2.076  0.00  0.00     0.034 A 
ATOM      4  C3  UNL d   1       0.864   2.085  -1.255  0.00  0.00     0.017 A 
ATOM      5  C4  UNL d   1       1.056   1.936   0.123  0.00  0.00     0.017 A 
ATOM      6  C5  UNL d   1       1.196   0.657   0.671  0.00  0.00     0.034 A 
ATOM      7 Cl   UNL d   1       1.128   3.286   1.200  0.00  0.00    -0.070 Cl
ATOM      8 Cl1  UNL d   1       0.683   3.630  -2.007  0.00  0.00    -0.070 Cl
ENDROOT
TORSDOF 0
ENDMDL
