MODEL 1
REMARK minimizedAffinity -2.80136347
REMARK minimizedRMSD -1
REMARK  0 active torsions:
REMARK  status: ('A' for Active; 'I' for Inactive)
ROOT
ATOM      1  C   UNL d   1       0.678   3.436  -1.081  0.00  0.00     0.020 A 
ATOM      2  C1  UNL d   1       0.759   3.131   0.277  0.00  0.00     0.020 A 
ATOM      3  C2  UNL d   1       1.056   1.829   0.684  0.00  0.00     0.034 A 
ATOM      4  C3  UNL d   1       1.273   0.826  -0.268  0.00  0.00     0.017 A 
ATOM      5  C4  UNL d   1       1.191   1.133  -1.631  0.00  0.00     0.017 A 
ATOM      6  C5  UNL d   1       0.893   2.439  -2.033  0.00  0.00     0.034 A 
ATOM      7 Cl   UNL d   1       1.445  -0.051  -2.865  0.00  0.00    -0.070 Cl
ATOM      8 Cl1  UNL d   1       1.636  -0.762   0.306  0.00  0.00    -0.070 Cl
ENDROOT
TORSDOF 0
ENDMDL
