MODEL 1
REMARK minimizedAffinity 2.89520741
REMARK minimizedRMSD -1
REMARK  0 active torsions:
REMARK  status: ('A' for Active; 'I' for Inactive)
ROOT
ATOM      1  C   UNL d   1       0.889   3.362  -0.531  0.00  0.00     0.020 A 
ATOM      2  C1  UNL d   1       1.114   2.787   0.719  0.00  0.00     0.020 A 
ATOM      3  C2  UNL d   1       1.579   1.473   0.810  0.00  0.00     0.034 A 
ATOM      4  C3  UNL d   1       1.819   0.730  -0.352  0.00  0.00     0.017 A 
ATOM      5  C4  UNL d   1       1.593   1.308  -1.606  0.00  0.00     0.017 A 
ATOM      6  C5  UNL d   1       1.128   2.624  -1.691  0.00  0.00     0.034 A 
ATOM      7 Cl   UNL d   1       1.867   0.454  -3.083  0.00  0.00    -0.070 Cl
ATOM      8 Cl1  UNL d   1       2.393  -0.889  -0.165  0.00  0.00    -0.070 Cl
ENDROOT
TORSDOF 0
ENDMDL
