MODEL 1
REMARK minimizedAffinity 5.85621071
REMARK minimizedRMSD -1
REMARK  0 active torsions:
REMARK  status: ('A' for Active; 'I' for Inactive)
ROOT
ATOM      1  C   UNL d   1       3.705   1.100   0.897  0.00  0.00     0.020 A 
ATOM      2  C1  UNL d   1       3.973  -0.246   0.653  0.00  0.00     0.020 A 
ATOM      3  C2  UNL d   1       2.992  -1.062   0.086  0.00  0.00     0.034 A 
ATOM      4  C3  UNL d   1       1.738  -0.532  -0.240  0.00  0.00     0.017 A 
ATOM      5  C4  UNL d   1       1.470   0.819   0.005  0.00  0.00     0.017 A 
ATOM      6  C5  UNL d   1       2.456   1.632   0.573  0.00  0.00     0.034 A 
ATOM      7 Cl   UNL d   1      -0.053   1.545  -0.370  0.00  0.00    -0.070 Cl
ATOM      8 Cl1  UNL d   1       0.572  -1.599  -0.939  0.00  0.00    -0.070 Cl
ENDROOT
TORSDOF 0
ENDMDL
