MODEL 1
REMARK minimizedAffinity 1.79246426
REMARK minimizedRMSD -1
REMARK  0 active torsions:
REMARK  status: ('A' for Active; 'I' for Inactive)
ROOT
ATOM      1  C   UNL d   1       0.108   0.556  -1.162  0.00  0.00     0.020 A 
ATOM      2  C1  UNL d   1       0.854  -0.440  -0.533  0.00  0.00     0.020 A 
ATOM      3  C2  UNL d   1       1.702  -0.113   0.527  0.00  0.00     0.034 A 
ATOM      4  C3  UNL d   1       1.807   1.214   0.961  0.00  0.00     0.017 A 
ATOM      5  C4  UNL d   1       1.057   2.213   0.329  0.00  0.00     0.017 A 
ATOM      6  C5  UNL d   1       0.209   1.879  -0.731  0.00  0.00     0.034 A 
ATOM      7 Cl   UNL d   1       1.133   3.871   0.809  0.00  0.00    -0.070 Cl
ATOM      8 Cl1  UNL d   1       2.875   1.547   2.278  0.00  0.00    -0.070 Cl
ENDROOT
TORSDOF 0
ENDMDL
