MODEL 1
REMARK minimizedAffinity 3.32494712
REMARK minimizedRMSD -1
REMARK  0 active torsions:
REMARK  status: ('A' for Active; 'I' for Inactive)
ROOT
ATOM      1  C   UNL d   1       0.911   3.753  -1.860  0.00  0.00     0.020 A 
ATOM      2  C1  UNL d   1       1.059   2.766  -2.834  0.00  0.00     0.020 A 
ATOM      3  C2  UNL d   1       1.135   1.423  -2.459  0.00  0.00     0.034 A 
ATOM      4  C3  UNL d   1       1.063   1.063  -1.108  0.00  0.00     0.017 A 
ATOM      5  C4  UNL d   1       0.915   2.055  -0.132  0.00  0.00     0.017 A 
ATOM      6  C5  UNL d   1       0.839   3.399  -0.513  0.00  0.00     0.034 A 
ATOM      7 Cl   UNL d   1       0.819   1.689   1.554  0.00  0.00    -0.070 Cl
ATOM      8 Cl1  UNL d   1       1.163  -0.617  -0.718  0.00  0.00    -0.070 Cl
ENDROOT
TORSDOF 0
ENDMDL
