MODEL 1
REMARK minimizedAffinity 6.58543158
REMARK minimizedRMSD -1
REMARK  0 active torsions:
REMARK  status: ('A' for Active; 'I' for Inactive)
ROOT
ATOM      1  C   UNL d   1       1.268  -0.348  -1.442  0.00  0.00     0.020 A 
ATOM      2  C1  UNL d   1       1.397  -0.452  -0.058  0.00  0.00     0.020 A 
ATOM      3  C2  UNL d   1       1.251   0.682   0.744  0.00  0.00     0.034 A 
ATOM      4  C3  UNL d   1       0.974   1.925   0.162  0.00  0.00     0.017 A 
ATOM      5  C4  UNL d   1       0.844   2.028  -1.228  0.00  0.00     0.017 A 
ATOM      6  C5  UNL d   1       0.992   0.889  -2.026  0.00  0.00     0.034 A 
ATOM      7 Cl   UNL d   1       0.504   3.526  -2.018  0.00  0.00    -0.070 Cl
ATOM      8 Cl1  UNL d   1       0.806   3.285   1.214  0.00  0.00    -0.070 Cl
ENDROOT
TORSDOF 0
ENDMDL
