MODEL 1
REMARK minimizedAffinity 6.73308897
REMARK minimizedRMSD -1
REMARK  0 active torsions:
REMARK  status: ('A' for Active; 'I' for Inactive)
ROOT
ATOM      1  C   UNL d   1       1.694   0.478  -0.619  0.00  0.00     0.020 A 
ATOM      2  C1  UNL d   1       0.903  -0.003  -1.662  0.00  0.00     0.020 A 
ATOM      3  C2  UNL d   1       0.285   0.891  -2.540  0.00  0.00     0.034 A 
ATOM      4  C3  UNL d   1       0.457   2.270  -2.376  0.00  0.00     0.017 A 
ATOM      5  C4  UNL d   1       1.252   2.752  -1.329  0.00  0.00     0.017 A 
ATOM      6  C5  UNL d   1       1.868   1.852  -0.454  0.00  0.00     0.034 A 
ATOM      7 Cl   UNL d   1       1.511   4.440  -1.064  0.00  0.00    -0.070 Cl
ATOM      8 Cl1  UNL d   1      -0.336   3.317  -3.499  0.00  0.00    -0.070 Cl
ENDROOT
TORSDOF 0
ENDMDL
