MODEL 1
REMARK minimizedAffinity 5.57713175
REMARK minimizedRMSD -1
REMARK  0 active torsions:
REMARK  status: ('A' for Active; 'I' for Inactive)
ROOT
ATOM      1  C   UNL d   1       1.966  -2.903  -0.739  0.00  0.00     0.023 A 
ATOM      2  C1  UNL d   1       1.748  -1.910   0.217  0.00  0.00     0.003 A 
ATOM      3  C2  UNL d   1       2.526  -0.751   0.212  0.00  0.00     0.048 A 
ATOM      4  C3  UNL d   1       3.520  -0.590  -0.753  0.00  0.00     0.023 A 
ATOM      5  C4  UNL d   1       3.741  -1.579  -1.712  0.00  0.00     0.048 A 
ATOM      6  C5  UNL d   1       2.961  -2.737  -1.702  0.00  0.00     0.003 A 
ATOM      7  I   UNL d   1       4.680   1.135  -0.763  0.00  0.00    -0.146 I 
ENDROOT
TORSDOF 0
ENDMDL
