MODEL 1
REMARK minimizedAffinity 4.17956305
REMARK minimizedRMSD -1
REMARK  0 active torsions:
REMARK  status: ('A' for Active; 'I' for Inactive)
ROOT
ATOM      1  C   UNL d   1      -4.930  -0.880  -0.372  0.00  0.00     0.023 A 
ATOM      2  C1  UNL d   1      -3.715  -0.899  -1.057  0.00  0.00     0.003 A 
ATOM      3  C2  UNL d   1      -3.568  -0.176  -2.242  0.00  0.00     0.048 A 
ATOM      4  C3  UNL d   1      -4.641   0.566  -2.737  0.00  0.00     0.023 A 
ATOM      5  C4  UNL d   1      -5.858   0.589  -2.054  0.00  0.00     0.048 A 
ATOM      6  C5  UNL d   1      -6.000  -0.136  -0.870  0.00  0.00     0.003 A 
ATOM      7  I   UNL d   1      -4.425   1.644  -4.501  0.00  0.00    -0.146 I 
ENDROOT
TORSDOF 0
ENDMDL
