MODEL 1
REMARK minimizedAffinity 1.69565868
REMARK minimizedRMSD -1
REMARK  0 active torsions:
REMARK  status: ('A' for Active; 'I' for Inactive)
ROOT
ATOM      1  C   UNL d   1       2.837   1.964   0.427  0.00  0.00     0.023 A 
ATOM      2  C1  UNL d   1       2.057   0.824   0.230  0.00  0.00     0.003 A 
ATOM      3  C2  UNL d   1       2.516  -0.203  -0.598  0.00  0.00     0.048 A 
ATOM      4  C3  UNL d   1       3.756  -0.083  -1.224  0.00  0.00     0.023 A 
ATOM      5  C4  UNL d   1       4.540   1.055  -1.030  0.00  0.00     0.048 A 
ATOM      6  C5  UNL d   1       4.076   2.080  -0.202  0.00  0.00     0.003 A 
ATOM      7  I   UNL d   1       4.442  -1.610  -2.457  0.00  0.00    -0.146 I 
ENDROOT
TORSDOF 0
ENDMDL
