MODEL 1
REMARK minimizedAffinity 9.58662128
REMARK minimizedRMSD -1
REMARK  0 active torsions:
REMARK  status: ('A' for Active; 'I' for Inactive)
ROOT
ATOM      1  C   UNL d   1      -2.374   0.006  -2.813  0.00  0.00     0.023 A 
ATOM      2  C1  UNL d   1      -3.421  -0.348  -1.962  0.00  0.00     0.003 A 
ATOM      3  C2  UNL d   1      -4.344   0.616  -1.552  0.00  0.00     0.048 A 
ATOM      4  C3  UNL d   1      -4.216   1.931  -1.997  0.00  0.00     0.023 A 
ATOM      5  C4  UNL d   1      -3.171   2.289  -2.850  0.00  0.00     0.048 A 
ATOM      6  C5  UNL d   1      -2.249   1.323  -3.257  0.00  0.00     0.003 A 
ATOM      7  I   UNL d   1      -5.590   3.366  -1.388  0.00  0.00    -0.146 I 
ENDROOT
TORSDOF 0
ENDMDL
