MODEL 1
REMARK minimizedAffinity 6.27574492
REMARK minimizedRMSD -1
REMARK  0 active torsions:
REMARK  status: ('A' for Active; 'I' for Inactive)
ROOT
ATOM      1  C   UNL d   1      -1.447   2.253  -0.390  0.00  0.00     0.023 A 
ATOM      2  C1  UNL d   1      -2.491   3.112  -0.048  0.00  0.00     0.003 A 
ATOM      3  C2  UNL d   1      -3.799   2.813  -0.437  0.00  0.00     0.048 A 
ATOM      4  C3  UNL d   1      -4.055   1.654  -1.168  0.00  0.00     0.023 A 
ATOM      5  C4  UNL d   1      -3.013   0.791  -1.512  0.00  0.00     0.048 A 
ATOM      6  C5  UNL d   1      -1.707   1.095  -1.122  0.00  0.00     0.003 A 
ATOM      7  I   UNL d   1      -6.000   1.207  -1.748  0.00  0.00    -0.146 I 
ENDROOT
TORSDOF 0
ENDMDL
