MODEL 1
REMARK minimizedAffinity 1.65634692
REMARK minimizedRMSD -1
REMARK  0 active torsions:
REMARK  status: ('A' for Active; 'I' for Inactive)
ROOT
ATOM      1  C   UNL d   1       3.753  -0.475  -0.371  0.00  0.00     0.023 A 
ATOM      2  C1  UNL d   1       3.192  -1.500   0.390  0.00  0.00     0.003 A 
ATOM      3  C2  UNL d   1       2.222  -1.208   1.351  0.00  0.00     0.048 A 
ATOM      4  C3  UNL d   1       1.817   0.113   1.545  0.00  0.00     0.023 A 
ATOM      5  C4  UNL d   1       2.375   1.142   0.784  0.00  0.00     0.048 A 
ATOM      6  C5  UNL d   1       3.345   0.844  -0.174  0.00  0.00     0.003 A 
ATOM      7  I   UNL d   1       0.373   0.551   2.974  0.00  0.00    -0.146 I 
ENDROOT
TORSDOF 0
ENDMDL
