MODEL 1
REMARK minimizedAffinity 8.87026787
REMARK minimizedRMSD -1
REMARK  0 active torsions:
REMARK  status: ('A' for Active; 'I' for Inactive)
ROOT
ATOM      1  C   UNL d   1      -0.922   1.502  -0.340  0.00  0.00     0.023 A 
ATOM      2  C1  UNL d   1      -1.721   1.624   0.797  0.00  0.00     0.003 A 
ATOM      3  C2  UNL d   1      -1.222   1.249   2.046  0.00  0.00     0.048 A 
ATOM      4  C3  UNL d   1       0.077   0.754   2.152  0.00  0.00     0.023 A 
ATOM      5  C4  UNL d   1       0.881   0.631   1.017  0.00  0.00     0.048 A 
ATOM      6  C5  UNL d   1       0.378   1.006  -0.230  0.00  0.00     0.003 A 
ATOM      7  I   UNL d   1       0.821   0.195   4.010  0.00  0.00    -0.146 I 
ENDROOT
TORSDOF 0
ENDMDL
