MODEL 1
REMARK minimizedAffinity 5.14616585
REMARK minimizedRMSD -1
REMARK  0 active torsions:
REMARK  status: ('A' for Active; 'I' for Inactive)
ROOT
ATOM      1  C   UNL d   1       4.559  -0.415  -1.542  0.00  0.00     0.023 A 
ATOM      2  C1  UNL d   1       3.776  -0.001  -0.464  0.00  0.00     0.003 A 
ATOM      3  C2  UNL d   1       2.685  -0.769  -0.056  0.00  0.00     0.048 A 
ATOM      4  C3  UNL d   1       2.381  -1.952  -0.729  0.00  0.00     0.023 A 
ATOM      5  C4  UNL d   1       3.161  -2.371  -1.808  0.00  0.00     0.048 A 
ATOM      6  C5  UNL d   1       4.251  -1.598  -2.213  0.00  0.00     0.003 A 
ATOM      7  I   UNL d   1       0.757  -3.098  -0.123  0.00  0.00    -0.146 I 
ENDROOT
TORSDOF 0
ENDMDL
