MODEL 1
REMARK minimizedAffinity 2.17795014
REMARK minimizedRMSD -1
REMARK  0 active torsions:
REMARK  status: ('A' for Active; 'I' for Inactive)
ROOT
ATOM      1  C2' OXE d   1       3.532   1.394  -0.655  0.00  0.00     0.078 C 
ATOM      2  C1' OXE d   1       1.424  -0.223   0.250  0.00  0.00     0.078 C 
ATOM      3  C1  OXE d   1       2.330  -0.781  -0.818  0.00  0.00    -0.078 A 
ATOM      4  C2  OXE d   1       3.331   0.035  -1.289  0.00  0.00    -0.078 A 
ATOM      5  C3  OXE d   1       4.229  -0.451  -2.235  0.00  0.00     0.003 A 
ATOM      6  C4  OXE d   1       4.029  -1.706  -2.823  0.00  0.00    -0.002 A 
ATOM      7  C5  OXE d   1       2.992  -2.537  -2.387  0.00  0.00    -0.002 A 
ATOM      8  C6  OXE d   1       2.162  -2.108  -1.357  0.00  0.00     0.003 A 
ENDROOT
TORSDOF 0
ENDMDL
