MODEL 1
REMARK minimizedAffinity 1.50587547
REMARK minimizedRMSD -1
REMARK  0 active torsions:
REMARK  status: ('A' for Active; 'I' for Inactive)
ROOT
ATOM      1  C2' OXE d   1       2.319  -2.267   0.249  0.00  0.00     0.078 C 
ATOM      2  C1' OXE d   1       1.717   0.424  -0.280  0.00  0.00     0.078 C 
ATOM      3  C1  OXE d   1       0.693  -0.615  -0.664  0.00  0.00    -0.078 A 
ATOM      4  C2  OXE d   1       1.015  -1.933  -0.444  0.00  0.00    -0.078 A 
ATOM      5  C3  OXE d   1       0.084  -2.927  -0.729  0.00  0.00     0.003 A 
ATOM      6  C4  OXE d   1      -1.115  -2.610  -1.379  0.00  0.00    -0.002 A 
ATOM      7  C5  OXE d   1      -1.446  -1.278  -1.649  0.00  0.00    -0.002 A 
ATOM      8  C6  OXE d   1      -0.574  -0.267  -1.260  0.00  0.00     0.003 A 
ENDROOT
TORSDOF 0
ENDMDL
