MODEL 1
REMARK minimizedAffinity 13.7507763
REMARK minimizedRMSD -1
REMARK  0 active torsions:
REMARK  status: ('A' for Active; 'I' for Inactive)
ROOT
ATOM      1  C2' OXE d   1      -3.735   2.330   0.791  0.00  0.00     0.078 C 
ATOM      2  C1' OXE d   1      -5.581   0.751  -0.616  0.00  0.00     0.078 C 
ATOM      3  C1  OXE d   1      -4.127   0.648  -1.004  0.00  0.00    -0.078 A 
ATOM      4  C2  OXE d   1      -3.237   1.459  -0.342  0.00  0.00    -0.078 A 
ATOM      5  C3  OXE d   1      -1.877   1.364  -0.623  0.00  0.00     0.003 A 
ATOM      6  C4  OXE d   1      -1.425   0.563  -1.679  0.00  0.00    -0.002 A 
ATOM      7  C5  OXE d   1      -2.320  -0.241  -2.392  0.00  0.00    -0.002 A 
ATOM      8  C6  OXE d   1      -3.665  -0.243  -2.040  0.00  0.00     0.003 A 
ENDROOT
TORSDOF 0
ENDMDL
