MODEL 1
REMARK minimizedAffinity 12.0666332
REMARK minimizedRMSD -1
REMARK  0 active torsions:
REMARK  status: ('A' for Active; 'I' for Inactive)
ROOT
ATOM      1  C2' OXE d   1       2.252  -0.354   1.325  0.00  0.00     0.078 C 
ATOM      2  C1' OXE d   1       3.370   2.140   1.966  0.00  0.00     0.078 C 
ATOM      3  C1  OXE d   1       3.387   1.713   0.520  0.00  0.00    -0.078 A 
ATOM      4  C2  OXE d   1       2.880   0.471   0.222  0.00  0.00    -0.078 A 
ATOM      5  C3  OXE d   1       2.821   0.051  -1.104  0.00  0.00     0.003 A 
ATOM      6  C4  OXE d   1       3.413   0.815  -2.117  0.00  0.00    -0.002 A 
ATOM      7  C5  OXE d   1       3.970   2.066  -1.829  0.00  0.00    -0.002 A 
ATOM      8  C6  OXE d   1       3.927   2.547  -0.525  0.00  0.00     0.003 A 
ENDROOT
TORSDOF 0
ENDMDL
