MODEL 1
REMARK minimizedAffinity 10.9566221
REMARK minimizedRMSD -1
REMARK  0 active torsions:
REMARK  status: ('A' for Active; 'I' for Inactive)
ROOT
ATOM      1  C2' OXE d   1      -2.980   1.024   0.969  0.00  0.00     0.078 C 
ATOM      2  C1' OXE d   1      -5.137   0.364  -0.702  0.00  0.00     0.078 C 
ATOM      3  C1  OXE d   1      -3.743   0.190  -1.251  0.00  0.00    -0.078 A 
ATOM      4  C2  OXE d   1      -2.695   0.560  -0.443  0.00  0.00    -0.078 A 
ATOM      5  C3  OXE d   1      -1.387   0.368  -0.880  0.00  0.00     0.003 A 
ATOM      6  C4  OXE d   1      -1.132  -0.052  -2.191  0.00  0.00    -0.002 A 
ATOM      7  C5  OXE d   1      -2.187  -0.396  -3.044  0.00  0.00    -0.002 A 
ATOM      8  C6  OXE d   1      -3.494  -0.321  -2.576  0.00  0.00     0.003 A 
ENDROOT
TORSDOF 0
ENDMDL
