MODEL 1
REMARK minimizedAffinity 6.87626314
REMARK minimizedRMSD -1
REMARK  0 active torsions:
REMARK  status: ('A' for Active; 'I' for Inactive)
ROOT
ATOM      1  C2' OXE d   1      -5.942   1.145  -2.729  0.00  0.00     0.078 C 
ATOM      2  C1' OXE d   1      -5.998   0.593   0.022  0.00  0.00     0.078 C 
ATOM      3  C1  OXE d   1      -4.668   0.513  -0.684  0.00  0.00    -0.078 A 
ATOM      4  C2  OXE d   1      -4.658   0.739  -2.039  0.00  0.00    -0.078 A 
ATOM      5  C3  OXE d   1      -3.449   0.732  -2.730  0.00  0.00     0.003 A 
ATOM      6  C4  OXE d   1      -2.267   0.345  -2.087  0.00  0.00    -0.002 A 
ATOM      7  C5  OXE d   1      -2.263   0.072  -0.715  0.00  0.00    -0.002 A 
ATOM      8  C6  OXE d   1      -3.444   0.193   0.008  0.00  0.00     0.003 A 
ENDROOT
TORSDOF 0
ENDMDL
