MODEL 1
REMARK minimizedAffinity 3.29912114
REMARK minimizedRMSD -1
REMARK  0 active torsions:
REMARK  status: ('A' for Active; 'I' for Inactive)
ROOT
ATOM      1  C2' OXE d   1       5.130   3.972  -1.426  0.00  0.00     0.078 C 
ATOM      2  C1' OXE d   1       5.149   4.227   1.369  0.00  0.00     0.078 C 
ATOM      3  C1  OXE d   1       4.448   3.030   0.777  0.00  0.00    -0.078 A 
ATOM      4  C2  OXE d   1       4.404   2.938  -0.594  0.00  0.00    -0.078 A 
ATOM      5  C3  OXE d   1       3.817   1.825  -1.191  0.00  0.00     0.003 A 
ATOM      6  C4  OXE d   1       3.139   0.879  -0.414  0.00  0.00    -0.002 A 
ATOM      7  C5  OXE d   1       3.138   0.975   0.982  0.00  0.00    -0.002 A 
ATOM      8  C6  OXE d   1       3.822   2.019   1.593  0.00  0.00     0.003 A 
ENDROOT
TORSDOF 0
ENDMDL
