MODEL 1
REMARK minimizedAffinity -1.96592247
REMARK minimizedRMSD -1
REMARK  0 active torsions:
REMARK  status: ('A' for Active; 'I' for Inactive)
ROOT
ATOM      1  C2' OXE d   1      -0.383  -2.826   6.000  0.00  0.00     0.078 C 
ATOM      2  C1' OXE d   1       0.330  -5.441   5.268  0.00  0.00     0.078 C 
ATOM      3  C1  OXE d   1       0.667  -4.326   4.310  0.00  0.00    -0.078 A 
ATOM      4  C2  OXE d   1       0.272  -3.056   4.655  0.00  0.00    -0.078 A 
ATOM      5  C3  OXE d   1       0.606  -1.983   3.833  0.00  0.00     0.003 A 
ATOM      6  C4  OXE d   1       1.203  -2.205   2.586  0.00  0.00    -0.002 A 
ATOM      7  C5  OXE d   1       1.577  -3.496   2.197  0.00  0.00    -0.002 A 
ATOM      8  C6  OXE d   1       1.355  -4.560   3.065  0.00  0.00     0.003 A 
ENDROOT
TORSDOF 0
ENDMDL
