MODEL 1
REMARK minimizedAffinity 13.7676001
REMARK minimizedRMSD -1
REMARK  0 active torsions:
REMARK  status: ('A' for Active; 'I' for Inactive)
ROOT
ATOM      1  C2' OXE d   1       4.615  -0.349   1.125  0.00  0.00     0.078 C 
ATOM      2  C1' OXE d   1       3.619   0.787  -1.241  0.00  0.00     0.078 C 
ATOM      3  C1  OXE d   1       3.244  -0.641  -0.934  0.00  0.00    -0.078 A 
ATOM      4  C2  OXE d   1       3.774  -1.204   0.202  0.00  0.00    -0.078 A 
ATOM      5  C3  OXE d   1       3.416  -2.501   0.560  0.00  0.00     0.003 A 
ATOM      6  C4  OXE d   1       2.646  -3.288  -0.304  0.00  0.00    -0.002 A 
ATOM      7  C5  OXE d   1       2.129  -2.747  -1.486  0.00  0.00    -0.002 A 
ATOM      8  C6  OXE d   1       2.383  -1.415  -1.794  0.00  0.00     0.003 A 
ENDROOT
TORSDOF 0
ENDMDL
