MODEL 1
REMARK minimizedAffinity -2.01236868
REMARK minimizedRMSD -1
REMARK  0 active torsions:
REMARK  status: ('A' for Active; 'I' for Inactive)
ROOT
ATOM      1  C1  BNZ d   1      -3.116   6.000   4.684  0.00  0.00     0.000 A 
ATOM      2  C2  BNZ d   1      -2.403   5.999   3.514  0.00  0.00     0.000 A 
ATOM      3  C3  BNZ d   1      -3.039   5.902   2.308  0.00  0.00     0.000 A 
ATOM      4  C4  BNZ d   1      -4.380   5.765   2.274  0.00  0.00     0.000 A 
ATOM      5  C5  BNZ d   1      -5.111   5.754   3.445  0.00  0.00     0.000 A 
ATOM      6  C6  BNZ d   1      -4.472   5.892   4.655  0.00  0.00     0.000 A 
ENDROOT
TORSDOF 0
ENDMDL
