MODEL 1
REMARK minimizedAffinity 1.65023816
REMARK minimizedRMSD -1
REMARK  0 active torsions:
REMARK  status: ('A' for Active; 'I' for Inactive)
ROOT
ATOM      1  C1  BNZ d   1      -2.910   5.966   3.440  0.00  0.00     0.000 A 
ATOM      2  C2  BNZ d   1      -3.801   5.958   2.401  0.00  0.00     0.000 A 
ATOM      3  C3  BNZ d   1      -5.148   5.995   2.634  0.00  0.00     0.000 A 
ATOM      4  C4  BNZ d   1      -5.601   5.999   3.904  0.00  0.00     0.000 A 
ATOM      5  C5  BNZ d   1      -4.715   5.998   4.962  0.00  0.00     0.000 A 
ATOM      6  C6  BNZ d   1      -3.360   6.000   4.724  0.00  0.00     0.000 A 
ENDROOT
TORSDOF 0
ENDMDL
