MODEL 1
REMARK minimizedAffinity 1.44097054
REMARK minimizedRMSD -1
REMARK  0 active torsions:
REMARK  status: ('A' for Active; 'I' for Inactive)
ROOT
ATOM      1  C1  BNZ d   1      -3.457   5.992   4.852  0.00  0.00     0.000 A 
ATOM      2  C2  BNZ d   1      -2.341   5.987   4.058  0.00  0.00     0.000 A 
ATOM      3  C3  BNZ d   1      -2.450   6.000   2.696  0.00  0.00     0.000 A 
ATOM      4  C4  BNZ d   1      -3.674   5.978   2.129  0.00  0.00     0.000 A 
ATOM      5  C5  BNZ d   1      -4.809   5.973   2.915  0.00  0.00     0.000 A 
ATOM      6  C6  BNZ d   1      -4.695   5.999   4.286  0.00  0.00     0.000 A 
ENDROOT
TORSDOF 0
ENDMDL
