MODEL 1
REMARK minimizedAffinity -2.77217245
REMARK minimizedRMSD -1
REMARK  0 active torsions:
REMARK  status: ('A' for Active; 'I' for Inactive)
ROOT
ATOM      1  C1  BNZ d   1      -4.620   5.496   2.297  0.00  0.00     0.000 A 
ATOM      2  C2  BNZ d   1      -5.154   5.991   3.456  0.00  0.00     0.000 A 
ATOM      3  C3  BNZ d   1      -4.436   5.977   4.619  0.00  0.00     0.000 A 
ATOM      4  C4  BNZ d   1      -3.202   5.433   4.631  0.00  0.00     0.000 A 
ATOM      5  C5  BNZ d   1      -2.653   4.921   3.472  0.00  0.00     0.000 A 
ATOM      6  C6  BNZ d   1      -3.364   4.972   2.294  0.00  0.00     0.000 A 
ENDROOT
TORSDOF 0
ENDMDL
