MODEL 1
REMARK minimizedAffinity -0.7267133
REMARK minimizedRMSD -1
REMARK  0 active torsions:
REMARK  status: ('A' for Active; 'I' for Inactive)
ROOT
ATOM      1  C1  BNZ d   1      -2.994   5.950   1.895  0.00  0.00     0.000 A 
ATOM      2  C2  BNZ d   1      -4.362   5.938   1.832  0.00  0.00     0.000 A 
ATOM      3  C3  BNZ d   1      -5.115   5.981   2.972  0.00  0.00     0.000 A 
ATOM      4  C4  BNZ d   1      -4.501   5.995   4.172  0.00  0.00     0.000 A 
ATOM      5  C5  BNZ d   1      -3.123   5.998   4.253  0.00  0.00     0.000 A 
ATOM      6  C6  BNZ d   1      -2.368   5.994   3.102  0.00  0.00     0.000 A 
ENDROOT
TORSDOF 0
ENDMDL
