MODEL 1
REMARK minimizedAffinity 3.66602802
REMARK minimizedRMSD -1
REMARK  0 active torsions:
REMARK  status: ('A' for Active; 'I' for Inactive)
ROOT
ATOM      1  C1  BNZ d   1      -4.191   5.925   1.395  0.00  0.00     0.000 A 
ATOM      2  C2  BNZ d   1      -3.059   5.936   2.166  0.00  0.00     0.000 A 
ATOM      3  C3  BNZ d   1      -3.141   5.953   3.530  0.00  0.00     0.000 A 
ATOM      4  C4  BNZ d   1      -4.353   6.000   4.121  0.00  0.00     0.000 A 
ATOM      5  C5  BNZ d   1      -5.503   5.999   3.357  0.00  0.00     0.000 A 
ATOM      6  C6  BNZ d   1      -5.417   5.942   1.985  0.00  0.00     0.000 A 
ENDROOT
TORSDOF 0
ENDMDL
