MODEL 1
REMARK minimizedAffinity 1.05795944
REMARK minimizedRMSD -1
REMARK  0 active torsions:
REMARK  status: ('A' for Active; 'I' for Inactive)
ROOT
ATOM      1  C1  BNZ d   1      -2.659   5.968   5.046  0.00  0.00     0.000 A 
ATOM      2  C2  BNZ d   1      -2.277   5.962   3.731  0.00  0.00     0.000 A 
ATOM      3  C3  BNZ d   1      -3.209   5.997   2.732  0.00  0.00     0.000 A 
ATOM      4  C4  BNZ d   1      -4.520   5.998   3.047  0.00  0.00     0.000 A 
ATOM      5  C5  BNZ d   1      -4.921   5.995   4.369  0.00  0.00     0.000 A 
ATOM      6  C6  BNZ d   1      -3.980   5.999   5.372  0.00  0.00     0.000 A 
ENDROOT
TORSDOF 0
ENDMDL
