MODEL 1
REMARK minimizedAffinity -2.25606298
REMARK minimizedRMSD -1
REMARK  0 active torsions:
REMARK  status: ('A' for Active; 'I' for Inactive)
ROOT
ATOM      1  C1  BNZ d   1      -4.719   5.999   2.000  0.00  0.00     0.000 A 
ATOM      2  C2  BNZ d   1      -5.267   5.997   3.255  0.00  0.00     0.000 A 
ATOM      3  C3  BNZ d   1      -4.471   6.000   4.366  0.00  0.00     0.000 A 
ATOM      4  C4  BNZ d   1      -3.131   5.963   4.222  0.00  0.00     0.000 A 
ATOM      5  C5  BNZ d   1      -2.563   5.955   2.963  0.00  0.00     0.000 A 
ATOM      6  C6  BNZ d   1      -3.367   5.992   1.847  0.00  0.00     0.000 A 
ENDROOT
TORSDOF 0
ENDMDL
