MODEL 1
REMARK minimizedAffinity 1.28336775
REMARK minimizedRMSD -1
REMARK  0 active torsions:
REMARK  status: ('A' for Active; 'I' for Inactive)
ROOT
ATOM      1  C1  BNZ d   1      -3.042   5.338   2.891  0.00  0.00     0.000 A 
ATOM      2  C2  BNZ d   1      -4.137   5.117   2.098  0.00  0.00     0.000 A 
ATOM      3  C3  BNZ d   1      -5.378   4.960   2.648  0.00  0.00     0.000 A 
ATOM      4  C4  BNZ d   1      -5.518   4.984   3.989  0.00  0.00     0.000 A 
ATOM      5  C5  BNZ d   1      -4.423   5.196   4.802  0.00  0.00     0.000 A 
ATOM      6  C6  BNZ d   1      -3.180   5.393   4.244  0.00  0.00     0.000 A 
ENDROOT
TORSDOF 0
ENDMDL
