MODEL 1
REMARK minimizedAffinity -1.74237728
REMARK minimizedRMSD -1
REMARK  0 active torsions:
REMARK  status: ('A' for Active; 'I' for Inactive)
ROOT
ATOM      1  C1  BNZ d   1      -2.978   5.996   4.231  0.00  0.00     0.000 A 
ATOM      2  C2  BNZ d   1      -3.375   6.000   5.542  0.00  0.00     0.000 A 
ATOM      3  C3  BNZ d   1      -4.701   5.978   5.872  0.00  0.00     0.000 A 
ATOM      4  C4  BNZ d   1      -5.629   5.993   4.893  0.00  0.00     0.000 A 
ATOM      5  C5  BNZ d   1      -5.245   5.998   3.567  0.00  0.00     0.000 A 
ATOM      6  C6  BNZ d   1      -3.908   5.980   3.238  0.00  0.00     0.000 A 
ENDROOT
TORSDOF 0
ENDMDL
