MODEL 1
REMARK minimizedAffinity -2.26562595
REMARK minimizedRMSD -1
REMARK  0 active torsions:
REMARK  status: ('A' for Active; 'I' for Inactive)
ROOT
ATOM      1  C1  BNZ d   1      -4.918   5.996   4.284  0.00  0.00     0.000 A 
ATOM      2  C2  BNZ d   1      -4.331   5.991   3.047  0.00  0.00     0.000 A 
ATOM      3  C3  BNZ d   1      -2.971   5.965   2.917  0.00  0.00     0.000 A 
ATOM      4  C4  BNZ d   1      -2.199   5.985   4.023  0.00  0.00     0.000 A 
ATOM      5  C5  BNZ d   1      -2.775   5.999   5.278  0.00  0.00     0.000 A 
ATOM      6  C6  BNZ d   1      -4.145   5.986   5.405  0.00  0.00     0.000 A 
ENDROOT
TORSDOF 0
ENDMDL
