MODEL 1
REMARK minimizedAffinity -2.67829084
REMARK minimizedRMSD -1
REMARK  0 active torsions:
REMARK  status: ('A' for Active; 'I' for Inactive)
ROOT
ATOM      1  C1  BNZ d   1      -2.152   5.997   3.078  0.00  0.00     0.000 A 
ATOM      2  C2  BNZ d   1      -2.708   5.999   4.329  0.00  0.00     0.000 A 
ATOM      3  C3  BNZ d   1      -4.065   5.976   4.493  0.00  0.00     0.000 A 
ATOM      4  C4  BNZ d   1      -4.863   5.990   3.406  0.00  0.00     0.000 A 
ATOM      5  C5  BNZ d   1      -4.318   5.998   2.138  0.00  0.00     0.000 A 
ATOM      6  C6  BNZ d   1      -2.952   5.982   1.977  0.00  0.00     0.000 A 
ENDROOT
TORSDOF 0
ENDMDL
