MODEL 1
REMARK minimizedAffinity -0.506258488
REMARK minimizedRMSD -1
REMARK  0 active torsions:
REMARK  status: ('A' for Active; 'I' for Inactive)
ROOT
ATOM      1  C1  BNZ d   1      -5.071   6.000   3.706  0.00  0.00     0.000 A 
ATOM      2  C2  BNZ d   1      -4.301   5.997   2.574  0.00  0.00     0.000 A 
ATOM      3  C3  BNZ d   1      -2.936   5.970   2.655  0.00  0.00     0.000 A 
ATOM      4  C4  BNZ d   1      -2.344   5.987   3.867  0.00  0.00     0.000 A 
ATOM      5  C5  BNZ d   1      -3.107   5.999   5.018  0.00  0.00     0.000 A 
ATOM      6  C6  BNZ d   1      -4.480   5.987   4.932  0.00  0.00     0.000 A 
ENDROOT
TORSDOF 0
ENDMDL
