MODEL 1
REMARK minimizedAffinity -1.22142804
REMARK minimizedRMSD -1
REMARK  0 active torsions:
REMARK  status: ('A' for Active; 'I' for Inactive)
ROOT
ATOM      1  C1  BNZ d   1      -4.577   5.999   4.882  0.00  0.00     0.000 A 
ATOM      2  C2  BNZ d   1      -5.208   5.959   3.668  0.00  0.00     0.000 A 
ATOM      3  C3  BNZ d   1      -4.489   5.908   2.507  0.00  0.00     0.000 A 
ATOM      4  C4  BNZ d   1      -3.141   5.937   2.559  0.00  0.00     0.000 A 
ATOM      5  C5  BNZ d   1      -2.490   5.986   3.776  0.00  0.00     0.000 A 
ATOM      6  C6  BNZ d   1      -3.217   5.998   4.944  0.00  0.00     0.000 A 
ENDROOT
TORSDOF 0
ENDMDL
