MODEL 1
REMARK minimizedAffinity -1.34329295
REMARK minimizedRMSD -1
REMARK  0 active torsions:
REMARK  status: ('A' for Active; 'I' for Inactive)
ROOT
ATOM      1  C1  BNZ d   1      -4.547   5.286   2.286  0.00  0.00     0.000 A 
ATOM      2  C2  BNZ d   1      -4.958   5.995   3.383  0.00  0.00     0.000 A 
ATOM      3  C3  BNZ d   1      -4.216   6.000   4.531  0.00  0.00     0.000 A 
ATOM      4  C4  BNZ d   1      -3.088   5.264   4.595  0.00  0.00     0.000 A 
ATOM      5  C5  BNZ d   1      -2.665   4.537   3.500  0.00  0.00     0.000 A 
ATOM      6  C6  BNZ d   1      -3.393   4.565   2.333  0.00  0.00     0.000 A 
ENDROOT
TORSDOF 0
ENDMDL
