MODEL 1
REMARK minimizedAffinity -2.86245227
REMARK minimizedRMSD -1
REMARK  0 active torsions:
REMARK  status: ('A' for Active; 'I' for Inactive)
ROOT
ATOM      1  C1  BNZ d   1      -4.504   5.996   3.703  0.00  0.00     0.000 A 
ATOM      2  C2  BNZ d   1      -4.262   5.962   2.355  0.00  0.00     0.000 A 
ATOM      3  C3  BNZ d   1      -2.983   5.921   1.875  0.00  0.00     0.000 A 
ATOM      4  C4  BNZ d   1      -1.948   5.955   2.739  0.00  0.00     0.000 A 
ATOM      5  C5  BNZ d   1      -2.176   5.998   4.100  0.00  0.00     0.000 A 
ATOM      6  C6  BNZ d   1      -3.465   6.000   4.582  0.00  0.00     0.000 A 
ENDROOT
TORSDOF 0
ENDMDL
