MODEL 1
REMARK minimizedAffinity 0.240538582
REMARK minimizedRMSD -1
REMARK  0 active torsions:
REMARK  status: ('A' for Active; 'I' for Inactive)
ROOT
ATOM      1  C1  BNZ d   1      -3.072   5.965   5.148  0.00  0.00     0.000 A 
ATOM      2  C2  BNZ d   1      -2.127   5.957   4.157  0.00  0.00     0.000 A 
ATOM      3  C3  BNZ d   1      -2.493   5.995   2.840  0.00  0.00     0.000 A 
ATOM      4  C4  BNZ d   1      -3.802   6.000   2.516  0.00  0.00     0.000 A 
ATOM      5  C5  BNZ d   1      -4.766   5.998   3.504  0.00  0.00     0.000 A 
ATOM      6  C6  BNZ d   1      -4.394   6.000   4.828  0.00  0.00     0.000 A 
ENDROOT
TORSDOF 0
ENDMDL
