MODEL 1
REMARK minimizedAffinity -2.05087018
REMARK minimizedRMSD -1
REMARK  0 active torsions:
REMARK  status: ('A' for Active; 'I' for Inactive)
ROOT
ATOM      1  C1  BNZ d   1      -4.270   5.988   5.207  0.00  0.00     0.000 A 
ATOM      2  C2  BNZ d   1      -5.240   6.000   4.241  0.00  0.00     0.000 A 
ATOM      3  C3  BNZ d   1      -4.908   5.973   2.915  0.00  0.00     0.000 A 
ATOM      4  C4  BNZ d   1      -3.608   5.975   2.557  0.00  0.00     0.000 A 
ATOM      5  C5  BNZ d   1      -2.618   5.971   3.520  0.00  0.00     0.000 A 
ATOM      6  C6  BNZ d   1      -2.956   5.959   4.853  0.00  0.00     0.000 A 
ENDROOT
TORSDOF 0
ENDMDL
