MODEL 1
REMARK minimizedAffinity 6.15597725
REMARK minimizedRMSD -1
REMARK  2 active torsions:
REMARK  status: ('A' for Active; 'I' for Inactive)
REMARK    1  A    between atoms: C1_2  and  C2_3 
REMARK    2  A    between atoms: C2_3  and  C3_4 
ROOT
ATOM      1  C3  UNL d   1       1.184  -2.140  -2.608  0.00  0.00    -0.075 A 
ATOM      2  C4  UNL d   1       0.673  -1.794  -1.349  0.00  0.00     0.002 A 
ATOM      3  C5  UNL d   1      -0.705  -1.724  -1.138  0.00  0.00     0.002 A 
ATOM      4  C6  UNL d   1      -1.587  -1.989  -2.184  0.00  0.00    -0.004 A 
ATOM      5  C7  UNL d   1      -1.090  -2.318  -3.443  0.00  0.00     0.002 A 
ATOM      6  C8  UNL d   1       0.288  -2.393  -3.655  0.00  0.00     0.002 A 
ENDROOT
BRANCH   1   7
ATOM      7  C2  UNL d   1       2.673  -2.246  -2.835  0.00  0.00     0.056 C 
BRANCH   7   8
ATOM      8  C1  UNL d   1       3.472  -1.055  -2.297  0.00  0.00     0.007 C 
ATOM      9  C   UNL d   1       4.229  -1.369  -1.014  0.00  0.00     0.009 C 
ENDBRANCH   7   8
ENDBRANCH   1   7
TORSDOF 2
ENDMDL
