MODEL 1
REMARK minimizedAffinity 6.55663729
REMARK minimizedRMSD -1
REMARK  2 active torsions:
REMARK  status: ('A' for Active; 'I' for Inactive)
REMARK    1  A    between atoms: C1_2  and  C2_3 
REMARK    2  A    between atoms: C2_3  and  C3_4 
ROOT
ATOM      1  C3  UNL d   1       5.261   5.305  -3.373  0.00  0.00    -0.075 A 
ATOM      2  C4  UNL d   1       5.530   3.965  -3.688  0.00  0.00     0.002 A 
ATOM      3  C5  UNL d   1       4.864   3.337  -4.740  0.00  0.00     0.002 A 
ATOM      4  C6  UNL d   1       3.915   4.035  -5.484  0.00  0.00    -0.004 A 
ATOM      5  C7  UNL d   1       3.628   5.362  -5.169  0.00  0.00     0.002 A 
ATOM      6  C8  UNL d   1       4.296   5.994  -4.120  0.00  0.00     0.002 A 
ENDROOT
BRANCH   1   7
ATOM      7  C2  UNL d   1       6.000   6.000  -2.254  0.00  0.00     0.056 C 
BRANCH   7   8
ATOM      8  C1  UNL d   1       5.871   5.304  -0.895  0.00  0.00     0.007 C 
ATOM      9  C   UNL d   1       4.622   4.441  -0.779  0.00  0.00     0.009 C 
ENDBRANCH   7   8
ENDBRANCH   1   7
TORSDOF 2
ENDMDL
