MODEL 1
REMARK minimizedAffinity 7.42442083
REMARK minimizedRMSD -1
REMARK  2 active torsions:
REMARK  status: ('A' for Active; 'I' for Inactive)
REMARK    1  A    between atoms: C1_2  and  C2_3 
REMARK    2  A    between atoms: C2_3  and  C3_4 
ROOT
ATOM      1  C3  UNL d   1       5.302   4.884  -4.279  0.00  0.00    -0.075 A 
ATOM      2  C4  UNL d   1       3.950   5.258  -4.277  0.00  0.00     0.002 A 
ATOM      3  C5  UNL d   1       3.318   5.620  -3.087  0.00  0.00     0.002 A 
ATOM      4  C6  UNL d   1       4.023   5.603  -1.886  0.00  0.00    -0.004 A 
ATOM      5  C7  UNL d   1       5.362   5.217  -1.874  0.00  0.00     0.002 A 
ATOM      6  C8  UNL d   1       5.999   4.859  -3.064  0.00  0.00     0.002 A 
ENDROOT
BRANCH   1   7
ATOM      7  C2  UNL d   1       6.000   4.520  -5.568  0.00  0.00     0.056 C 
BRANCH   7   8
ATOM      8  C1  UNL d   1       5.921   3.031  -5.921  0.00  0.00     0.007 C 
ATOM      9  C   UNL d   1       5.239   2.195  -4.846  0.00  0.00     0.009 C 
ENDBRANCH   7   8
ENDBRANCH   1   7
TORSDOF 2
ENDMDL
