MODEL 1
REMARK minimizedAffinity 6.81526089
REMARK minimizedRMSD -1
REMARK  2 active torsions:
REMARK  status: ('A' for Active; 'I' for Inactive)
REMARK    1  A    between atoms: C1_2  and  C2_3 
REMARK    2  A    between atoms: C2_3  and  C3_4 
ROOT
ATOM      1  C3  UNL d   1       3.984   5.216  -3.913  0.00  0.00    -0.075 A 
ATOM      2  C4  UNL d   1       3.799   3.920  -4.418  0.00  0.00     0.002 A 
ATOM      3  C5  UNL d   1       4.669   3.404  -5.378  0.00  0.00     0.002 A 
ATOM      4  C6  UNL d   1       5.726   4.177  -5.853  0.00  0.00    -0.004 A 
ATOM      5  C7  UNL d   1       5.909   5.471  -5.371  0.00  0.00     0.002 A 
ATOM      6  C8  UNL d   1       5.043   5.989  -4.406  0.00  0.00     0.002 A 
ENDROOT
BRANCH   1   7
ATOM      7  C2  UNL d   1       3.064   5.770  -2.852  0.00  0.00     0.056 C 
BRANCH   7   8
ATOM      8  C1  UNL d   1       3.721   5.925  -1.476  0.00  0.00     0.007 C 
ATOM      9  C   UNL d   1       5.241   5.856  -1.525  0.00  0.00     0.009 C 
ENDBRANCH   7   8
ENDBRANCH   1   7
TORSDOF 2
ENDMDL
