MODEL 1
REMARK minimizedAffinity 2.50439978
REMARK minimizedRMSD -1
REMARK  2 active torsions:
REMARK  status: ('A' for Active; 'I' for Inactive)
REMARK    1  A    between atoms: C1_2  and  C2_3 
REMARK    2  A    between atoms: C2_3  and  C3_4 
ROOT
ATOM      1  C3  UNL d   1       3.568   4.630  -1.781  0.00  0.00    -0.075 A 
ATOM      2  C4  UNL d   1       4.767   5.105  -1.229  0.00  0.00     0.002 A 
ATOM      3  C5  UNL d   1       5.974   4.942  -1.909  0.00  0.00     0.002 A 
ATOM      4  C6  UNL d   1       6.000   4.296  -3.143  0.00  0.00    -0.004 A 
ATOM      5  C7  UNL d   1       4.818   3.806  -3.694  0.00  0.00     0.002 A 
ATOM      6  C8  UNL d   1       3.608   3.971  -3.017  0.00  0.00     0.002 A 
ENDROOT
BRANCH   1   7
ATOM      7  C2  UNL d   1       2.254   4.829  -1.064  0.00  0.00     0.056 C 
BRANCH   7   8
ATOM      8  C1  UNL d   1       2.284   4.427   0.414  0.00  0.00     0.007 C 
ATOM      9  C   UNL d   1       0.989   4.746   1.150  0.00  0.00     0.009 C 
ENDBRANCH   7   8
ENDBRANCH   1   7
TORSDOF 2
ENDMDL
