MODEL 1
REMARK minimizedAffinity 0.0543638952
REMARK minimizedRMSD -1
REMARK  2 active torsions:
REMARK  status: ('A' for Active; 'I' for Inactive)
REMARK    1  A    between atoms: C1_2  and  C2_3 
REMARK    2  A    between atoms: C2_3  and  C3_4 
ROOT
ATOM      1  C3  UNL d   1       3.427   4.580  -2.025  0.00  0.00    -0.075 A 
ATOM      2  C4  UNL d   1       3.624   4.156  -3.347  0.00  0.00     0.002 A 
ATOM      3  C5  UNL d   1       4.903   4.144  -3.903  0.00  0.00     0.002 A 
ATOM      4  C6  UNL d   1       5.998   4.564  -3.151  0.00  0.00    -0.004 A 
ATOM      5  C7  UNL d   1       5.811   5.002  -1.842  0.00  0.00     0.002 A 
ATOM      6  C8  UNL d   1       4.533   5.012  -1.281  0.00  0.00     0.002 A 
ENDROOT
BRANCH   1   7
ATOM      7  C2  UNL d   1       2.049   4.568  -1.407  0.00  0.00     0.056 C 
BRANCH   7   8
ATOM      8  C1  UNL d   1       1.983   3.874  -0.042  0.00  0.00     0.007 C 
ATOM      9  C   UNL d   1       0.591   3.895   0.575  0.00  0.00     0.009 C 
ENDBRANCH   7   8
ENDBRANCH   1   7
TORSDOF 2
ENDMDL
