MODEL 1
REMARK minimizedAffinity -4.41551113
REMARK minimizedRMSD -1
REMARK  2 active torsions:
REMARK  status: ('A' for Active; 'I' for Inactive)
REMARK    1  A    between atoms: C1_2  and  C2_3 
REMARK    2  A    between atoms: C2_3  and  C3_4 
ROOT
ATOM      1  C3  UNL d   1       4.664   4.380  -4.204  0.00  0.00    -0.075 A 
ATOM      2  C4  UNL d   1       3.475   3.761  -4.615  0.00  0.00     0.002 A 
ATOM      3  C5  UNL d   1       3.512   2.580  -5.356  0.00  0.00     0.002 A 
ATOM      4  C6  UNL d   1       4.734   2.009  -5.704  0.00  0.00    -0.004 A 
ATOM      5  C7  UNL d   1       5.922   2.625  -5.315  0.00  0.00     0.002 A 
ATOM      6  C8  UNL d   1       5.888   3.804  -4.569  0.00  0.00     0.002 A 
ENDROOT
BRANCH   1   7
ATOM      7  C2  UNL d   1       4.632   5.643  -3.376  0.00  0.00     0.056 C 
BRANCH   7   8
ATOM      8  C1  UNL d   1       5.974   6.000  -2.729  0.00  0.00     0.007 C 
ATOM      9  C   UNL d   1       5.992   5.780  -1.223  0.00  0.00     0.009 C 
ENDBRANCH   7   8
ENDBRANCH   1   7
TORSDOF 2
ENDMDL
