MODEL 1
REMARK minimizedAffinity 18.2234135
REMARK minimizedRMSD -1
REMARK  2 active torsions:
REMARK  status: ('A' for Active; 'I' for Inactive)
REMARK    1  A    between atoms: C1_2  and  C2_3 
REMARK    2  A    between atoms: C2_3  and  C3_4 
ROOT
ATOM      1  C3  UNL d   1       1.876  -2.067  -2.561  0.00  0.00    -0.075 A 
ATOM      2  C4  UNL d   1       0.832  -1.368  -3.183  0.00  0.00     0.002 A 
ATOM      3  C5  UNL d   1      -0.458  -1.402  -2.654  0.00  0.00     0.002 A 
ATOM      4  C6  UNL d   1      -0.723  -2.143  -1.504  0.00  0.00    -0.004 A 
ATOM      5  C7  UNL d   1       0.303  -2.855  -0.886  0.00  0.00     0.002 A 
ATOM      6  C8  UNL d   1       1.596  -2.818  -1.412  0.00  0.00     0.002 A 
ENDROOT
BRANCH   1   7
ATOM      7  C2  UNL d   1       3.281  -2.010  -3.112  0.00  0.00     0.056 C 
BRANCH   7   8
ATOM      8  C1  UNL d   1       4.256  -2.979  -2.436  0.00  0.00     0.007 C 
ATOM      9  C   UNL d   1       5.187  -2.297  -1.442  0.00  0.00     0.009 C 
ENDBRANCH   7   8
ENDBRANCH   1   7
TORSDOF 2
ENDMDL
