MODEL 1
REMARK minimizedAffinity -3.80598164
REMARK minimizedRMSD -1
REMARK  2 active torsions:
REMARK  status: ('A' for Active; 'I' for Inactive)
REMARK    1  A    between atoms: C1_2  and  C2_3 
REMARK    2  A    between atoms: C2_3  and  C3_4 
ROOT
ATOM      1  C3  UNL d   1       4.858   4.040  -4.648  0.00  0.00    -0.075 A 
ATOM      2  C4  UNL d   1       6.000   4.498  -3.975  0.00  0.00     0.002 A 
ATOM      3  C5  UNL d   1       5.891   5.089  -2.715  0.00  0.00     0.002 A 
ATOM      4  C6  UNL d   1       4.641   5.237  -2.118  0.00  0.00    -0.004 A 
ATOM      5  C7  UNL d   1       3.498   4.801  -2.785  0.00  0.00     0.002 A 
ATOM      6  C8  UNL d   1       3.605   4.205  -4.043  0.00  0.00     0.002 A 
ENDROOT
BRANCH   1   7
ATOM      7  C2  UNL d   1       4.972   3.373  -5.998  0.00  0.00     0.056 C 
BRANCH   7   8
ATOM      8  C1  UNL d   1       4.765   1.855  -5.964  0.00  0.00     0.007 C 
ATOM      9  C   UNL d   1       5.857   1.118  -5.199  0.00  0.00     0.009 C 
ENDBRANCH   7   8
ENDBRANCH   1   7
TORSDOF 2
ENDMDL
