MODEL 1
REMARK minimizedAffinity 1.04285383
REMARK minimizedRMSD -1
REMARK  2 active torsions:
REMARK  status: ('A' for Active; 'I' for Inactive)
REMARK    1  A    between atoms: C1_2  and  C2_3 
REMARK    2  A    between atoms: C2_3  and  C3_4 
ROOT
ATOM      1  C3  UNL d   1       5.385   5.138  -2.798  0.00  0.00    -0.075 A 
ATOM      2  C4  UNL d   1       4.191   5.523  -3.427  0.00  0.00     0.002 A 
ATOM      3  C5  UNL d   1       3.615   4.716  -4.408  0.00  0.00     0.002 A 
ATOM      4  C6  UNL d   1       4.228   3.522  -4.781  0.00  0.00    -0.004 A 
ATOM      5  C7  UNL d   1       5.422   3.138  -4.175  0.00  0.00     0.002 A 
ATOM      6  C8  UNL d   1       5.999   3.941  -3.189  0.00  0.00     0.002 A 
ENDROOT
BRANCH   1   7
ATOM      7  C2  UNL d   1       5.998   5.992  -1.714  0.00  0.00     0.056 C 
BRANCH   7   8
ATOM      8  C1  UNL d   1       5.206   5.999  -0.403  0.00  0.00     0.007 C 
ATOM      9  C   UNL d   1       3.757   5.563  -0.574  0.00  0.00     0.009 C 
ENDBRANCH   7   8
ENDBRANCH   1   7
TORSDOF 2
ENDMDL
