MODEL 1
REMARK minimizedAffinity 3.7538712
REMARK minimizedRMSD -1
REMARK  2 active torsions:
REMARK  status: ('A' for Active; 'I' for Inactive)
REMARK    1  A    between atoms: C1_2  and  C2_3 
REMARK    2  A    between atoms: C2_3  and  C3_4 
ROOT
ATOM      1  C3  UNL d   1       4.909   4.436  -4.700  0.00  0.00    -0.075 A 
ATOM      2  C4  UNL d   1       5.998   4.652  -3.843  0.00  0.00     0.002 A 
ATOM      3  C5  UNL d   1       5.829   5.341  -2.642  0.00  0.00     0.002 A 
ATOM      4  C6  UNL d   1       4.574   5.832  -2.288  0.00  0.00    -0.004 A 
ATOM      5  C7  UNL d   1       3.489   5.638  -3.139  0.00  0.00     0.002 A 
ATOM      6  C8  UNL d   1       3.654   4.945  -4.340  0.00  0.00     0.002 A 
ENDROOT
BRANCH   1   7
ATOM      7  C2  UNL d   1       5.079   3.665  -5.987  0.00  0.00     0.056 C 
BRANCH   7   8
ATOM      8  C1  UNL d   1       5.999   2.445  -5.867  0.00  0.00     0.007 C 
ATOM      9  C   UNL d   1       5.259   1.121  -6.000  0.00  0.00     0.009 C 
ENDBRANCH   7   8
ENDBRANCH   1   7
TORSDOF 2
ENDMDL
