MODEL 1
REMARK minimizedAffinity 2.20440316
REMARK minimizedRMSD -1
REMARK  2 active torsions:
REMARK  status: ('A' for Active; 'I' for Inactive)
REMARK    1  A    between atoms: C1_2  and  C2_3 
REMARK    2  A    between atoms: C2_3  and  C3_4 
ROOT
ATOM      1  C3  UNL d   1       5.843   5.244  -3.493  0.00  0.00    -0.075 A 
ATOM      2  C4  UNL d   1       5.995   3.853  -3.588  0.00  0.00     0.002 A 
ATOM      3  C5  UNL d   1       6.000   3.225  -4.833  0.00  0.00     0.002 A 
ATOM      4  C6  UNL d   1       5.841   3.975  -5.996  0.00  0.00    -0.004 A 
ATOM      5  C7  UNL d   1       5.672   5.356  -5.913  0.00  0.00     0.002 A 
ATOM      6  C8  UNL d   1       5.672   5.988  -4.668  0.00  0.00     0.002 A 
ENDROOT
BRANCH   1   7
ATOM      7  C2  UNL d   1       5.867   5.934  -2.149  0.00  0.00     0.056 C 
BRANCH   7   8
ATOM      8  C1  UNL d   1       4.897   5.337  -1.124  0.00  0.00     0.007 C 
ATOM      9  C   UNL d   1       3.828   4.453  -1.753  0.00  0.00     0.009 C 
ENDBRANCH   7   8
ENDBRANCH   1   7
TORSDOF 2
ENDMDL
