MODEL 1
REMARK minimizedAffinity -3.08993077
REMARK minimizedRMSD -1
REMARK  2 active torsions:
REMARK  status: ('A' for Active; 'I' for Inactive)
REMARK    1  A    between atoms: C1_2  and  C2_3 
REMARK    2  A    between atoms: C2_3  and  C3_4 
ROOT
ATOM      1  C3  UNL d   1       5.070   3.418  -5.370  0.00  0.00    -0.075 A 
ATOM      2  C4  UNL d   1       5.540   4.621  -5.918  0.00  0.00     0.002 A 
ATOM      3  C5  UNL d   1       5.231   5.841  -5.317  0.00  0.00     0.002 A 
ATOM      4  C6  UNL d   1       4.443   5.876  -4.169  0.00  0.00    -0.004 A 
ATOM      5  C7  UNL d   1       3.957   4.689  -3.625  0.00  0.00     0.002 A 
ATOM      6  C8  UNL d   1       4.268   3.466  -4.222  0.00  0.00     0.002 A 
ENDROOT
BRANCH   1   7
ATOM      7  C2  UNL d   1       5.425   2.092  -5.999  0.00  0.00     0.056 C 
BRANCH   7   8
ATOM      8  C1  UNL d   1       5.857   1.020  -4.992  0.00  0.00     0.007 C 
ATOM      9  C   UNL d   1       5.282  -0.357  -5.297  0.00  0.00     0.009 C 
ENDBRANCH   7   8
ENDBRANCH   1   7
TORSDOF 2
ENDMDL
