MODEL 1
REMARK minimizedAffinity 0.743579984
REMARK minimizedRMSD -1
REMARK  2 active torsions:
REMARK  status: ('A' for Active; 'I' for Inactive)
REMARK    1  A    between atoms: C1_2  and  C2_3 
REMARK    2  A    between atoms: C2_3  and  C3_4 
ROOT
ATOM      1  C3  UNL d   1      -0.584  -1.013   4.877  0.00  0.00    -0.075 A 
ATOM      2  C4  UNL d   1      -1.424  -0.155   4.152  0.00  0.00     0.002 A 
ATOM      3  C5  UNL d   1      -2.803  -0.172   4.360  0.00  0.00     0.002 A 
ATOM      4  C6  UNL d   1      -3.360  -1.052   5.285  0.00  0.00    -0.004 A 
ATOM      5  C7  UNL d   1      -2.537  -1.920   5.999  0.00  0.00     0.002 A 
ATOM      6  C8  UNL d   1      -1.156  -1.902   5.796  0.00  0.00     0.002 A 
ENDROOT
BRANCH   1   7
ATOM      7  C2  UNL d   1       0.913  -0.978   4.678  0.00  0.00     0.056 C 
BRANCH   7   8
ATOM      8  C1  UNL d   1       1.644  -2.207   5.229  0.00  0.00     0.007 C 
ATOM      9  C   UNL d   1       2.461  -2.942   4.175  0.00  0.00     0.009 C 
ENDBRANCH   7   8
ENDBRANCH   1   7
TORSDOF 2
ENDMDL
