MODEL 1
REMARK minimizedAffinity -4.72771597
REMARK minimizedRMSD -1
REMARK  2 active torsions:
REMARK  status: ('A' for Active; 'I' for Inactive)
REMARK    1  A    between atoms: C1_2  and  C2_3 
REMARK    2  A    between atoms: C2_3  and  C3_4 
ROOT
ATOM      1  C3  UNL d   1      -0.006  -0.022   0.488  0.00  0.00    -0.075 A 
ATOM      2  C4  UNL d   1       0.382  -1.335   0.791  0.00  0.00     0.002 A 
ATOM      3  C5  UNL d   1      -0.560  -2.271   1.221  0.00  0.00     0.002 A 
ATOM      4  C6  UNL d   1      -1.896  -1.904   1.363  0.00  0.00    -0.004 A 
ATOM      5  C7  UNL d   1      -2.290  -0.598   1.080  0.00  0.00     0.002 A 
ATOM      6  C8  UNL d   1      -1.351   0.339   0.646  0.00  0.00     0.002 A 
ENDROOT
BRANCH   1   7
ATOM      7  C2  UNL d   1       1.003   0.987  -0.006  0.00  0.00     0.056 C 
BRANCH   7   8
ATOM      8  C1  UNL d   1       0.632   2.441   0.300  0.00  0.00     0.007 C 
ATOM      9  C   UNL d   1       1.844   3.340   0.503  0.00  0.00     0.009 C 
ENDBRANCH   7   8
ENDBRANCH   1   7
TORSDOF 2
ENDMDL
