MODEL 1
REMARK minimizedAffinity -4.61497784
REMARK minimizedRMSD -1
REMARK  2 active torsions:
REMARK  status: ('A' for Active; 'I' for Inactive)
REMARK    1  A    between atoms: C1_2  and  C2_3 
REMARK    2  A    between atoms: C2_3  and  C3_4 
ROOT
ATOM      1  C3  UNL d   1       0.700   0.386   0.560  0.00  0.00    -0.075 A 
ATOM      2  C4  UNL d   1       0.393  -0.661   1.441  0.00  0.00     0.002 A 
ATOM      3  C5  UNL d   1       0.009  -1.910   0.951  0.00  0.00     0.002 A 
ATOM      4  C6  UNL d   1      -0.083  -2.124  -0.422  0.00  0.00    -0.004 A 
ATOM      5  C7  UNL d   1       0.204  -1.086  -1.306  0.00  0.00     0.002 A 
ATOM      6  C8  UNL d   1       0.593   0.163  -0.819  0.00  0.00     0.002 A 
ENDROOT
BRANCH   1   7
ATOM      7  C2  UNL d   1       1.145   1.730   1.084  0.00  0.00     0.056 C 
BRANCH   7   8
ATOM      8  C1  UNL d   1       1.220   2.823   0.012  0.00  0.00     0.007 C 
ATOM      9  C   UNL d   1       2.601   3.453  -0.107  0.00  0.00     0.009 C 
ENDBRANCH   7   8
ENDBRANCH   1   7
TORSDOF 2
ENDMDL
