MODEL 1
REMARK minimizedAffinity -2.50035238
REMARK minimizedRMSD -1
REMARK  2 active torsions:
REMARK  status: ('A' for Active; 'I' for Inactive)
REMARK    1  A    between atoms: C1_2  and  C2_3 
REMARK    2  A    between atoms: C2_3  and  C3_4 
ROOT
ATOM      1  C3  UNL d   1       0.288   0.438   0.636  0.00  0.00    -0.075 A 
ATOM      2  C4  UNL d   1       0.695   0.497  -0.705  0.00  0.00     0.002 A 
ATOM      3  C5  UNL d   1       0.854   1.727  -1.344  0.00  0.00     0.002 A 
ATOM      4  C6  UNL d   1       0.598   2.911  -0.656  0.00  0.00    -0.004 A 
ATOM      5  C7  UNL d   1       0.177   2.864   0.671  0.00  0.00     0.002 A 
ATOM      6  C8  UNL d   1       0.022   1.635   1.314  0.00  0.00     0.002 A 
ENDROOT
BRANCH   1   7
ATOM      7  C2  UNL d   1       0.142  -0.888   1.342  0.00  0.00     0.056 C 
BRANCH   7   8
ATOM      8  C1  UNL d   1      -1.188  -1.598   1.068  0.00  0.00     0.007 C 
ATOM      9  C   UNL d   1      -1.018  -2.947   0.382  0.00  0.00     0.009 C 
ENDBRANCH   7   8
ENDBRANCH   1   7
TORSDOF 2
ENDMDL
