MODEL 1
REMARK minimizedAffinity -3.69842577
REMARK minimizedRMSD -1
REMARK  2 active torsions:
REMARK  status: ('A' for Active; 'I' for Inactive)
REMARK    1  A    between atoms: C1_2  and  C2_3 
REMARK    2  A    between atoms: C2_3  and  C3_4 
ROOT
ATOM      1  C3  UNL d   1       1.378   1.931   0.258  0.00  0.00    -0.075 A 
ATOM      2  C4  UNL d   1       2.572   1.427   0.792  0.00  0.00     0.002 A 
ATOM      3  C5  UNL d   1       3.543   2.292   1.298  0.00  0.00     0.002 A 
ATOM      4  C6  UNL d   1       3.337   3.670   1.267  0.00  0.00    -0.004 A 
ATOM      5  C7  UNL d   1       2.161   4.182   0.723  0.00  0.00     0.002 A 
ATOM      6  C8  UNL d   1       1.186   3.319   0.220  0.00  0.00     0.002 A 
ENDROOT
BRANCH   1   7
ATOM      7  C2  UNL d   1       0.311   0.999  -0.265  0.00  0.00     0.056 C 
BRANCH   7   8
ATOM      8  C1  UNL d   1       0.062  -0.224   0.624  0.00  0.00     0.007 C 
ATOM      9  C   UNL d   1       0.479  -1.535  -0.029  0.00  0.00     0.009 C 
ENDBRANCH   7   8
ENDBRANCH   1   7
TORSDOF 2
ENDMDL
