MODEL 1
REMARK minimizedAffinity -1.28978837
REMARK minimizedRMSD -1
REMARK  2 active torsions:
REMARK  status: ('A' for Active; 'I' for Inactive)
REMARK    1  A    between atoms: C1_2  and  C2_3 
REMARK    2  A    between atoms: C2_3  and  C3_4 
ROOT
ATOM      1  C3  UNL d   1      -0.966  -1.452   0.601  0.00  0.00    -0.075 A 
ATOM      2  C4  UNL d   1      -1.499  -0.405   1.367  0.00  0.00     0.002 A 
ATOM      3  C5  UNL d   1      -1.123   0.916   1.121  0.00  0.00     0.002 A 
ATOM      4  C6  UNL d   1      -0.204   1.206   0.116  0.00  0.00    -0.004 A 
ATOM      5  C7  UNL d   1       0.345   0.172  -0.641  0.00  0.00     0.002 A 
ATOM      6  C8  UNL d   1      -0.033  -1.150  -0.400  0.00  0.00     0.002 A 
ENDROOT
BRANCH   1   7
ATOM      7  C2  UNL d   1      -1.391  -2.880   0.843  0.00  0.00     0.056 C 
BRANCH   7   8
ATOM      8  C1  UNL d   1      -2.841  -3.028   1.315  0.00  0.00     0.007 C 
ATOM      9  C   UNL d   1      -3.798  -3.426   0.199  0.00  0.00     0.009 C 
ENDBRANCH   7   8
ENDBRANCH   1   7
TORSDOF 2
ENDMDL
