MODEL 1
REMARK minimizedAffinity -4.11242771
REMARK minimizedRMSD -1
REMARK  2 active torsions:
REMARK  status: ('A' for Active; 'I' for Inactive)
REMARK    1  A    between atoms: C1_2  and  C2_3 
REMARK    2  A    between atoms: C2_3  and  C3_4 
ROOT
ATOM      1  C3  UNL d   1       0.171  -0.143  -0.041  0.00  0.00    -0.075 A 
ATOM      2  C4  UNL d   1      -0.471  -0.977   0.885  0.00  0.00     0.002 A 
ATOM      3  C5  UNL d   1      -0.568  -2.350   0.655  0.00  0.00     0.002 A 
ATOM      4  C6  UNL d   1      -0.033  -2.903  -0.506  0.00  0.00    -0.004 A 
ATOM      5  C7  UNL d   1       0.593  -2.082  -1.441  0.00  0.00     0.002 A 
ATOM      6  C8  UNL d   1       0.695  -0.708  -1.211  0.00  0.00     0.002 A 
ENDROOT
BRANCH   1   7
ATOM      7  C2  UNL d   1       0.305   1.339   0.216  0.00  0.00     0.056 C 
BRANCH   7   8
ATOM      8  C1  UNL d   1       1.675   1.757   0.760  0.00  0.00     0.007 C 
ATOM      9  C   UNL d   1       1.677   3.148   1.379  0.00  0.00     0.009 C 
ENDBRANCH   7   8
ENDBRANCH   1   7
TORSDOF 2
ENDMDL
