MODEL 1
REMARK minimizedAffinity -4.56238031
REMARK minimizedRMSD -1
REMARK  2 active torsions:
REMARK  status: ('A' for Active; 'I' for Inactive)
REMARK    1  A    between atoms: C1_2  and  C2_3 
REMARK    2  A    between atoms: C2_3  and  C3_4 
ROOT
ATOM      1  C3  UNL d   1      -1.009  -1.863   0.826  0.00  0.00    -0.075 A 
ATOM      2  C4  UNL d   1      -0.251  -3.036   0.700  0.00  0.00     0.002 A 
ATOM      3  C5  UNL d   1       0.880  -3.064  -0.115  0.00  0.00     0.002 A 
ATOM      4  C6  UNL d   1       1.261  -1.926  -0.822  0.00  0.00    -0.004 A 
ATOM      5  C7  UNL d   1       0.506  -0.760  -0.718  0.00  0.00     0.002 A 
ATOM      6  C8  UNL d   1      -0.624  -0.728   0.101  0.00  0.00     0.002 A 
ENDROOT
BRANCH   1   7
ATOM      7  C2  UNL d   1      -2.218  -1.818   1.731  0.00  0.00     0.056 C 
BRANCH   7   8
ATOM      8  C1  UNL d   1      -2.701  -0.400   2.056  0.00  0.00     0.007 C 
ATOM      9  C   UNL d   1      -3.116  -0.226   3.510  0.00  0.00     0.009 C 
ENDBRANCH   7   8
ENDBRANCH   1   7
TORSDOF 2
ENDMDL
