MODEL 1
REMARK minimizedAffinity -6.43200207
REMARK minimizedRMSD -1
REMARK  2 active torsions:
REMARK  status: ('A' for Active; 'I' for Inactive)
REMARK    1  A    between atoms: C1_2  and  C2_3 
REMARK    2  A    between atoms: C2_3  and  C3_4 
ROOT
ATOM      1  C3  UNL d   1       0.138   0.079   0.762  0.00  0.00    -0.075 A 
ATOM      2  C4  UNL d   1       0.214   0.044   2.162  0.00  0.00     0.002 A 
ATOM      3  C5  UNL d   1       0.685   1.148   2.874  0.00  0.00     0.002 A 
ATOM      4  C6  UNL d   1       1.095   2.294   2.196  0.00  0.00    -0.004 A 
ATOM      5  C7  UNL d   1       1.039   2.333   0.804  0.00  0.00     0.002 A 
ATOM      6  C8  UNL d   1       0.564   1.232   0.090  0.00  0.00     0.002 A 
ENDROOT
BRANCH   1   7
ATOM      7  C2  UNL d   1      -0.399  -1.102  -0.012  0.00  0.00     0.056 C 
BRANCH   7   8
ATOM      8  C1  UNL d   1      -1.143  -2.127   0.851  0.00  0.00     0.007 C 
ATOM      9  C   UNL d   1      -0.500  -3.507   0.832  0.00  0.00     0.009 C 
ENDBRANCH   7   8
ENDBRANCH   1   7
TORSDOF 2
ENDMDL
