MODEL 1
REMARK minimizedAffinity -4.02956629
REMARK minimizedRMSD -1
REMARK  2 active torsions:
REMARK  status: ('A' for Active; 'I' for Inactive)
REMARK    1  A    between atoms: C1_2  and  C2_3 
REMARK    2  A    between atoms: C2_3  and  C3_4 
ROOT
ATOM      1  C3  UNL d   1       0.771   1.417   0.406  0.00  0.00    -0.075 A 
ATOM      2  C4  UNL d   1       1.446   2.050  -0.648  0.00  0.00     0.002 A 
ATOM      3  C5  UNL d   1       2.214   3.191  -0.415  0.00  0.00     0.002 A 
ATOM      4  C6  UNL d   1       2.310   3.718   0.871  0.00  0.00    -0.004 A 
ATOM      5  C7  UNL d   1       1.631   3.108   1.923  0.00  0.00     0.002 A 
ATOM      6  C8  UNL d   1       0.865   1.964   1.693  0.00  0.00     0.002 A 
ENDROOT
BRANCH   1   7
ATOM      7  C2  UNL d   1      -0.038   0.166   0.165  0.00  0.00     0.056 C 
BRANCH   7   8
ATOM      8  C1  UNL d   1      -0.364  -0.621   1.439  0.00  0.00     0.007 C 
ATOM      9  C   UNL d   1      -1.111  -1.921   1.168  0.00  0.00     0.009 C 
ENDBRANCH   7   8
ENDBRANCH   1   7
TORSDOF 2
ENDMDL
