MODEL 1
REMARK minimizedAffinity -0.714967787
REMARK minimizedRMSD -1
REMARK  2 active torsions:
REMARK  status: ('A' for Active; 'I' for Inactive)
REMARK    1  A    between atoms: C1_2  and  C2_3 
REMARK    2  A    between atoms: C2_3  and  C3_4 
ROOT
ATOM      1  C3  UNL d   1       0.067  -0.009   0.207  0.00  0.00    -0.075 A 
ATOM      2  C4  UNL d   1      -0.359  -0.185   1.531  0.00  0.00     0.002 A 
ATOM      3  C5  UNL d   1      -1.110  -1.305   1.891  0.00  0.00     0.002 A 
ATOM      4  C6  UNL d   1      -1.452  -2.256   0.931  0.00  0.00    -0.004 A 
ATOM      5  C7  UNL d   1      -1.047  -2.083  -0.391  0.00  0.00     0.002 A 
ATOM      6  C8  UNL d   1      -0.293  -0.966  -0.752  0.00  0.00     0.002 A 
ENDROOT
BRANCH   1   7
ATOM      7  C2  UNL d   1       0.904   1.185  -0.183  0.00  0.00     0.056 C 
BRANCH   7   8
ATOM      8  C1  UNL d   1       0.392   2.516   0.378  0.00  0.00     0.007 C 
ATOM      9  C   UNL d   1       1.503   3.522   0.647  0.00  0.00     0.009 C 
ENDBRANCH   7   8
ENDBRANCH   1   7
TORSDOF 2
ENDMDL
