MODEL 1
REMARK minimizedAffinity -4.30978298
REMARK minimizedRMSD -1
REMARK  2 active torsions:
REMARK  status: ('A' for Active; 'I' for Inactive)
REMARK    1  A    between atoms: C1_2  and  C2_3 
REMARK    2  A    between atoms: C2_3  and  C3_4 
ROOT
ATOM      1  C3  UNL d   1       0.784   1.315   0.701  0.00  0.00    -0.075 A 
ATOM      2  C4  UNL d   1       0.443   2.577   0.195  0.00  0.00     0.002 A 
ATOM      3  C5  UNL d   1       1.293   3.668   0.379  0.00  0.00     0.002 A 
ATOM      4  C6  UNL d   1       2.487   3.514   1.080  0.00  0.00    -0.004 A 
ATOM      5  C7  UNL d   1       2.828   2.268   1.601  0.00  0.00     0.002 A 
ATOM      6  C8  UNL d   1       1.982   1.174   1.414  0.00  0.00     0.002 A 
ENDROOT
BRANCH   1   7
ATOM      7  C2  UNL d   1      -0.118   0.124   0.479  0.00  0.00     0.056 C 
BRANCH   7   8
ATOM      8  C1  UNL d   1      -0.256  -0.790   1.701  0.00  0.00     0.007 C 
ATOM      9  C   UNL d   1      -1.292  -1.890   1.514  0.00  0.00     0.009 C 
ENDBRANCH   7   8
ENDBRANCH   1   7
TORSDOF 2
ENDMDL
