MODEL 1
REMARK minimizedAffinity -3.66619372
REMARK minimizedRMSD -1
REMARK  2 active torsions:
REMARK  status: ('A' for Active; 'I' for Inactive)
REMARK    1  A    between atoms: C1_2  and  C2_3 
REMARK    2  A    between atoms: C2_3  and  C3_4 
ROOT
ATOM      1  C3  UNL d   1      -0.139  -0.687   0.273  0.00  0.00    -0.075 A 
ATOM      2  C4  UNL d   1      -0.774  -1.555   1.173  0.00  0.00     0.002 A 
ATOM      3  C5  UNL d   1      -1.178  -2.826   0.766  0.00  0.00     0.002 A 
ATOM      4  C6  UNL d   1      -0.963  -3.242  -0.546  0.00  0.00    -0.004 A 
ATOM      5  C7  UNL d   1      -0.348  -2.382  -1.454  0.00  0.00     0.002 A 
ATOM      6  C8  UNL d   1       0.062  -1.111  -1.048  0.00  0.00     0.002 A 
ENDROOT
BRANCH   1   7
ATOM      7  C2  UNL d   1       0.328   0.679   0.715  0.00  0.00     0.056 C 
BRANCH   7   8
ATOM      8  C1  UNL d   1       0.457   1.694  -0.426  0.00  0.00     0.007 C 
ATOM      9  C   UNL d   1       1.359   2.872  -0.083  0.00  0.00     0.009 C 
ENDBRANCH   7   8
ENDBRANCH   1   7
TORSDOF 2
ENDMDL
