MODEL 1
REMARK minimizedAffinity 0.137852162
REMARK minimizedRMSD -1
REMARK  0 active torsions:
REMARK  status: ('A' for Active; 'I' for Inactive)
ROOT
ATOM      1  C4' PXY d   1      -3.087   0.710   1.384  0.00  0.00     0.077 C 
ATOM      2  C1' PXY d   1       2.446   0.309  -0.243  0.00  0.00     0.077 C 
ATOM      3  C1  PXY d   1       0.998   0.425   0.190  0.00  0.00    -0.082 A 
ATOM      4  C2  PXY d   1       0.252  -0.664   0.279  0.00  0.00     0.003 A 
ATOM      5  C3  PXY d   1      -1.068  -0.573   0.638  0.00  0.00     0.003 A 
ATOM      6  C4  PXY d   1      -1.617   0.639   0.960  0.00  0.00    -0.082 A 
ATOM      7  C5  PXY d   1      -0.860   1.754   0.881  0.00  0.00     0.003 A 
ATOM      8  C6  PXY d   1       0.467   1.645   0.475  0.00  0.00     0.003 A 
ENDROOT
TORSDOF 0
ENDMDL
