MODEL 1
REMARK minimizedAffinity -3.00624251
REMARK minimizedRMSD -1
REMARK  0 active torsions:
REMARK  status: ('A' for Active; 'I' for Inactive)
ROOT
ATOM      1  C4' PXY d   1       3.332   1.019   1.090  0.00  0.00     0.077 C 
ATOM      2  C1' PXY d   1      -2.278   2.010   0.111  0.00  0.00     0.077 C 
ATOM      3  C1  PXY d   1      -0.809   1.737   0.369  0.00  0.00    -0.082 A 
ATOM      4  C2  PXY d   1      -0.048   2.689   0.883  0.00  0.00     0.003 A 
ATOM      5  C3  PXY d   1       1.290   2.470   1.092  0.00  0.00     0.003 A 
ATOM      6  C4  PXY d   1       1.842   1.247   0.822  0.00  0.00    -0.082 A 
ATOM      7  C5  PXY d   1       1.069   0.267   0.307  0.00  0.00     0.003 A 
ATOM      8  C6  PXY d   1      -0.278   0.523   0.064  0.00  0.00     0.003 A 
ENDROOT
TORSDOF 0
ENDMDL
