MODEL 1
REMARK minimizedAffinity -2.10257626
REMARK minimizedRMSD -1
REMARK  0 active torsions:
REMARK  status: ('A' for Active; 'I' for Inactive)
ROOT
ATOM      1  C4' PXY d   1      -0.591  -2.614  -0.813  0.00  0.00     0.077 C 
ATOM      2  C1' PXY d   1      -0.957   2.752   1.304  0.00  0.00     0.077 C 
ATOM      3  C1  PXY d   1      -0.849   1.348   0.745  0.00  0.00    -0.082 A 
ATOM      4  C2  PXY d   1      -1.949   0.681   0.434  0.00  0.00     0.003 A 
ATOM      5  C3  PXY d   1      -1.871  -0.602  -0.043  0.00  0.00     0.003 A 
ATOM      6  C4  PXY d   1      -0.652  -1.190  -0.254  0.00  0.00    -0.082 A 
ATOM      7  C5  PXY d   1       0.475  -0.512   0.050  0.00  0.00     0.003 A 
ATOM      8  C6  PXY d   1       0.372   0.774   0.572  0.00  0.00     0.003 A 
ENDROOT
TORSDOF 0
ENDMDL
