MODEL 1
REMARK minimizedAffinity -5.26212788
REMARK minimizedRMSD -1
REMARK  0 active torsions:
REMARK  status: ('A' for Active; 'I' for Inactive)
ROOT
ATOM      1  C4' PXY d   1       3.428   1.583   0.521  0.00  0.00     0.077 C 
ATOM      2  C1' PXY d   1      -2.295   2.393   0.442  0.00  0.00     0.077 C 
ATOM      3  C1  PXY d   1      -0.796   2.167   0.464  0.00  0.00    -0.082 A 
ATOM      4  C2  PXY d   1       0.010   3.165   0.787  0.00  0.00     0.003 A 
ATOM      5  C3  PXY d   1       1.370   2.988   0.781  0.00  0.00     0.003 A 
ATOM      6  C4  PXY d   1       1.907   1.762   0.494  0.00  0.00    -0.082 A 
ATOM      7  C5  PXY d   1       1.091   0.736   0.175  0.00  0.00     0.003 A 
ATOM      8  C6  PXY d   1      -0.285   0.947   0.146  0.00  0.00     0.003 A 
ENDROOT
TORSDOF 0
ENDMDL
