MODEL 1
REMARK minimizedAffinity -4.92631769
REMARK minimizedRMSD -1
REMARK  0 active torsions:
REMARK  status: ('A' for Active; 'I' for Inactive)
ROOT
ATOM      1  C4' PXY d   1      -1.040  -2.181  -0.016  0.00  0.00     0.077 C 
ATOM      2  C1' PXY d   1       0.352   3.425   0.212  0.00  0.00     0.077 C 
ATOM      3  C1  PXY d   1      -0.022   1.957   0.161  0.00  0.00    -0.082 A 
ATOM      4  C2  PXY d   1       0.877   1.065  -0.222  0.00  0.00     0.003 A 
ATOM      5  C3  PXY d   1       0.545  -0.263  -0.305  0.00  0.00     0.003 A 
ATOM      6  C4  PXY d   1      -0.704  -0.689   0.060  0.00  0.00    -0.082 A 
ATOM      7  C5  PXY d   1      -1.623   0.213   0.462  0.00  0.00     0.003 A 
ATOM      8  C6  PXY d   1      -1.280   1.562   0.500  0.00  0.00     0.003 A 
ENDROOT
TORSDOF 0
ENDMDL
