MODEL 1
REMARK minimizedAffinity -4.16751766
REMARK minimizedRMSD -1
REMARK  0 active torsions:
REMARK  status: ('A' for Active; 'I' for Inactive)
ROOT
ATOM      1  C4' PXY d   1      -2.694   0.391   0.705  0.00  0.00     0.077 C 
ATOM      2  C1' PXY d   1       2.527   2.818   0.195  0.00  0.00     0.077 C 
ATOM      3  C1  PXY d   1       1.154   2.191   0.337  0.00  0.00    -0.082 A 
ATOM      4  C2  PXY d   1       0.999   0.897   0.107  0.00  0.00     0.003 A 
ATOM      5  C3  PXY d   1      -0.241   0.320   0.200  0.00  0.00     0.003 A 
ATOM      6  C4  PXY d   1      -1.325   1.065   0.583  0.00  0.00    -0.082 A 
ATOM      7  C5  PXY d   1      -1.173   2.383   0.829  0.00  0.00     0.003 A 
ATOM      8  C6  PXY d   1       0.087   2.958   0.689  0.00  0.00     0.003 A 
ENDROOT
TORSDOF 0
ENDMDL
