MODEL 1
REMARK minimizedAffinity -3.06250739
REMARK minimizedRMSD -1
REMARK  0 active torsions:
REMARK  status: ('A' for Active; 'I' for Inactive)
ROOT
ATOM      1  C4' PXY d   1       0.359  -2.214  -0.223  0.00  0.00     0.077 C 
ATOM      2  C1' PXY d   1      -1.861   2.884   1.359  0.00  0.00     0.077 C 
ATOM      3  C1  PXY d   1      -1.276   1.552   0.933  0.00  0.00    -0.082 A 
ATOM      4  C2  PXY d   1      -1.703   0.437   1.502  0.00  0.00     0.003 A 
ATOM      5  C3  PXY d   1      -1.162  -0.773   1.152  0.00  0.00     0.003 A 
ATOM      6  C4  PXY d   1      -0.211  -0.847   0.169  0.00  0.00    -0.082 A 
ATOM      7  C5  PXY d   1       0.223   0.285  -0.424  0.00  0.00     0.003 A 
ATOM      8  C6  PXY d   1      -0.310   1.507  -0.025  0.00  0.00     0.003 A 
ENDROOT
TORSDOF 0
ENDMDL
