MODEL 1
REMARK minimizedAffinity -3.18840384
REMARK minimizedRMSD -1
REMARK  0 active torsions:
REMARK  status: ('A' for Active; 'I' for Inactive)
ROOT
ATOM      1  C4' PXY d   1      -0.446  -2.425  -0.912  0.00  0.00     0.077 C 
ATOM      2  C1' PXY d   1      -0.642   2.949   1.209  0.00  0.00     0.077 C 
ATOM      3  C1  PXY d   1      -0.582   1.543   0.644  0.00  0.00    -0.082 A 
ATOM      4  C2  PXY d   1      -1.616   0.732   0.796  0.00  0.00     0.003 A 
ATOM      5  C3  PXY d   1      -1.566  -0.552   0.319  0.00  0.00     0.003 A 
ATOM      6  C4  PXY d   1      -0.467  -0.995  -0.366  0.00  0.00    -0.082 A 
ATOM      7  C5  PXY d   1       0.588  -0.170  -0.535  0.00  0.00     0.003 A 
ATOM      8  C6  PXY d   1       0.534   1.117  -0.007  0.00  0.00     0.003 A 
ENDROOT
TORSDOF 0
ENDMDL
