MODEL 1
REMARK minimizedAffinity -4.81157303
REMARK minimizedRMSD -1
REMARK  0 active torsions:
REMARK  status: ('A' for Active; 'I' for Inactive)
ROOT
ATOM      1  C4' PXY d   1      -0.042   3.708   0.046  0.00  0.00     0.077 C 
ATOM      2  C1' PXY d   1      -0.464  -2.048   0.375  0.00  0.00     0.077 C 
ATOM      3  C1  PXY d   1      -0.366  -0.538   0.294  0.00  0.00    -0.082 A 
ATOM      4  C2  PXY d   1       0.482   0.018  -0.557  0.00  0.00     0.003 A 
ATOM      5  C3  PXY d   1       0.606   1.382  -0.621  0.00  0.00     0.003 A 
ATOM      6  C4  PXY d   1      -0.182   2.187   0.156  0.00  0.00    -0.082 A 
ATOM      7  C5  PXY d   1      -1.057   1.628   1.019  0.00  0.00     0.003 A 
ATOM      8  C6  PXY d   1      -1.139   0.241   1.099  0.00  0.00     0.003 A 
ENDROOT
TORSDOF 0
ENDMDL
