MODEL 1
REMARK minimizedAffinity -5.55534554
REMARK minimizedRMSD -1
REMARK  0 active torsions:
REMARK  status: ('A' for Active; 'I' for Inactive)
ROOT
ATOM      1  C4' PXY d   1      -0.116  -2.028  -0.015  0.00  0.00     0.077 C 
ATOM      2  C1' PXY d   1       0.392   3.720   0.330  0.00  0.00     0.077 C 
ATOM      3  C1  PXY d   1       0.248   2.213   0.248  0.00  0.00    -0.082 A 
ATOM      4  C2  PXY d   1       1.300   1.472  -0.062  0.00  0.00     0.003 A 
ATOM      5  C3  PXY d   1       1.180   0.110  -0.172  0.00  0.00     0.003 A 
ATOM      6  C4  PXY d   1      -0.015  -0.504   0.089  0.00  0.00    -0.082 A 
ATOM      7  C5  PXY d   1      -1.090   0.245   0.416  0.00  0.00     0.003 A 
ATOM      8  C6  PXY d   1      -0.958   1.629   0.482  0.00  0.00     0.003 A 
ENDROOT
TORSDOF 0
ENDMDL
