MODEL 1
REMARK minimizedAffinity 3.80511761
REMARK minimizedRMSD -1
REMARK  0 active torsions:
REMARK  status: ('A' for Active; 'I' for Inactive)
ROOT
ATOM      1  C4' PXY d   1      -1.109  -1.604  -0.591  0.00  0.00     0.077 C 
ATOM      2  C1' PXY d   1      -1.609   3.035   2.823  0.00  0.00     0.077 C 
ATOM      3  C1  PXY d   1      -1.465   1.819   1.928  0.00  0.00    -0.082 A 
ATOM      4  C2  PXY d   1      -2.442   1.501   1.094  0.00  0.00     0.003 A 
ATOM      5  C3  PXY d   1      -2.342   0.387   0.301  0.00  0.00     0.003 A 
ATOM      6  C4  PXY d   1      -1.208  -0.380   0.324  0.00  0.00    -0.082 A 
ATOM      7  C5  PXY d   1      -0.202  -0.056   1.164  0.00  0.00     0.003 A 
ATOM      8  C6  PXY d   1      -0.341   1.055   1.991  0.00  0.00     0.003 A 
ENDROOT
TORSDOF 0
ENDMDL
