MODEL 1
REMARK minimizedAffinity -3.69433141
REMARK minimizedRMSD -1
REMARK  0 active torsions:
REMARK  status: ('A' for Active; 'I' for Inactive)
ROOT
ATOM      1  C4' PXY d   1      -1.205   2.791   1.057  0.00  0.00     0.077 C 
ATOM      2  C1' PXY d   1      -0.538  -2.654  -0.767  0.00  0.00     0.077 C 
ATOM      3  C1  PXY d   1      -0.725  -1.226  -0.294  0.00  0.00    -0.082 A 
ATOM      4  C2  PXY d   1       0.335  -0.462  -0.084  0.00  0.00     0.003 A 
ATOM      5  C3  PXY d   1       0.185   0.821   0.375  0.00  0.00     0.003 A 
ATOM      6  C4  PXY d   1      -1.064   1.346   0.570  0.00  0.00    -0.082 A 
ATOM      7  C5  PXY d   1      -2.151   0.577   0.347  0.00  0.00     0.003 A 
ATOM      8  C6  PXY d   1      -1.976  -0.736  -0.078  0.00  0.00     0.003 A 
ENDROOT
TORSDOF 0
ENDMDL
