MODEL 1
REMARK minimizedAffinity -5.96501207
REMARK minimizedRMSD -1
REMARK  0 active torsions:
REMARK  status: ('A' for Active; 'I' for Inactive)
ROOT
ATOM      1  C4' PXY d   1       2.654   2.242   0.374  0.00  0.00     0.077 C 
ATOM      2  C1' PXY d   1      -2.907   0.729   0.821  0.00  0.00     0.077 C 
ATOM      3  C1  PXY d   1      -1.452   1.136   0.697  0.00  0.00    -0.082 A 
ATOM      4  C2  PXY d   1      -0.506   0.213   0.757  0.00  0.00     0.003 A 
ATOM      5  C3  PXY d   1       0.816   0.567   0.680  0.00  0.00     0.003 A 
ATOM      6  C4  PXY d   1       1.172   1.875   0.485  0.00  0.00    -0.082 A 
ATOM      7  C5  PXY d   1       0.213   2.822   0.412  0.00  0.00     0.003 A 
ATOM      8  C6  PXY d   1      -1.122   2.446   0.534  0.00  0.00     0.003 A 
ENDROOT
TORSDOF 0
ENDMDL
