MODEL 1
REMARK minimizedAffinity -5.28028011
REMARK minimizedRMSD -1
REMARK  0 active torsions:
REMARK  status: ('A' for Active; 'I' for Inactive)
ROOT
ATOM      1  C4' PXY d   1      -0.385  -1.959  -0.004  0.00  0.00     0.077 C 
ATOM      2  C1' PXY d   1       0.319   3.778   0.114  0.00  0.00     0.077 C 
ATOM      3  C1  PXY d   1       0.126   2.274   0.093  0.00  0.00    -0.082 A 
ATOM      4  C2  PXY d   1       1.103   1.495  -0.342  0.00  0.00     0.003 A 
ATOM      5  C3  PXY d   1       0.933   0.136  -0.398  0.00  0.00     0.003 A 
ATOM      6  C4  PXY d   1      -0.230  -0.436   0.044  0.00  0.00    -0.082 A 
ATOM      7  C5  PXY d   1      -1.228   0.351   0.499  0.00  0.00     0.003 A 
ATOM      8  C6  PXY d   1      -1.050   1.732   0.510  0.00  0.00     0.003 A 
ENDROOT
TORSDOF 0
ENDMDL
