MODEL 1
REMARK minimizedAffinity 3.29273391
REMARK minimizedRMSD -1
REMARK  0 active torsions:
REMARK  status: ('A' for Active; 'I' for Inactive)
ROOT
ATOM      1  C4' PXY d   1      -3.269   0.920   1.284  0.00  0.00     0.077 C 
ATOM      2  C1' PXY d   1       2.329  -0.239   0.431  0.00  0.00     0.077 C 
ATOM      3  C1  PXY d   1       0.864   0.074   0.664  0.00  0.00    -0.082 A 
ATOM      4  C2  PXY d   1      -0.056  -0.812   0.319  0.00  0.00     0.003 A 
ATOM      5  C3  PXY d   1      -1.387  -0.532   0.494  0.00  0.00     0.003 A 
ATOM      6  C4  PXY d   1      -1.778   0.644   1.076  0.00  0.00    -0.082 A 
ATOM      7  C5  PXY d   1      -0.844   1.548   1.441  0.00  0.00     0.003 A 
ATOM      8  C6  PXY d   1       0.500   1.262   1.218  0.00  0.00     0.003 A 
ENDROOT
TORSDOF 0
ENDMDL
