MODEL 1
REMARK minimizedAffinity -3.72995687
REMARK minimizedRMSD -1
REMARK  0 active torsions:
REMARK  status: ('A' for Active; 'I' for Inactive)
ROOT
ATOM      1  C4' PXY d   1       0.737   4.537   0.227  0.00  0.00     0.077 C 
ATOM      2  C1' PXY d   1      -0.400  -1.124  -0.045  0.00  0.00     0.077 C 
ATOM      3  C1  PXY d   1      -0.114   0.363   0.031  0.00  0.00    -0.082 A 
ATOM      4  C2  PXY d   1       0.822   0.889  -0.742  0.00  0.00     0.003 A 
ATOM      5  C3  PXY d   1       1.115   2.226  -0.664  0.00  0.00     0.003 A 
ATOM      6  C4  PXY d   1       0.407   3.042   0.177  0.00  0.00    -0.082 A 
ATOM      7  C5  PXY d   1      -0.556   2.515   0.962  0.00  0.00     0.003 A 
ATOM      8  C6  PXY d   1      -0.811   1.148   0.897  0.00  0.00     0.003 A 
ENDROOT
TORSDOF 0
ENDMDL
