MODEL 1
REMARK minimizedAffinity -3.79007411
REMARK minimizedRMSD -1
REMARK  0 active torsions:
REMARK  status: ('A' for Active; 'I' for Inactive)
ROOT
ATOM      1  C4' PXY d   1      -0.837  -2.043   0.399  0.00  0.00     0.077 C 
ATOM      2  C1' PXY d   1       0.946   3.387  -0.469  0.00  0.00     0.077 C 
ATOM      3  C1  PXY d   1       0.476   1.966  -0.229  0.00  0.00    -0.082 A 
ATOM      4  C2  PXY d   1       0.928   0.989  -0.998  0.00  0.00     0.003 A 
ATOM      5  C3  PXY d   1       0.488  -0.297  -0.815  0.00  0.00     0.003 A 
ATOM      6  C4  PXY d   1      -0.382  -0.594   0.199  0.00  0.00    -0.082 A 
ATOM      7  C5  PXY d   1      -0.840   0.396   0.994  0.00  0.00     0.003 A 
ATOM      8  C6  PXY d   1      -0.413   1.701   0.766  0.00  0.00     0.003 A 
ENDROOT
TORSDOF 0
ENDMDL
