MODEL 1
REMARK minimizedAffinity -4.64582157
REMARK minimizedRMSD -1
REMARK  0 active torsions:
REMARK  status: ('A' for Active; 'I' for Inactive)
ROOT
ATOM      1  C4' PXY d   1      -1.058  -1.409  -0.928  0.00  0.00     0.077 C 
ATOM      2  C1' PXY d   1       0.750   3.910   0.431  0.00  0.00     0.077 C 
ATOM      3  C1  PXY d   1       0.265   2.517   0.082  0.00  0.00    -0.082 A 
ATOM      4  C2  PXY d   1       1.141   1.585  -0.256  0.00  0.00     0.003 A 
ATOM      5  C3  PXY d   1       0.717   0.329  -0.606  0.00  0.00     0.003 A 
ATOM      6  C4  PXY d   1      -0.613   0.008  -0.558  0.00  0.00    -0.082 A 
ATOM      7  C5  PXY d   1      -1.512   0.951  -0.205  0.00  0.00     0.003 A 
ATOM      8  C6  PXY d   1      -1.065   2.232   0.107  0.00  0.00     0.003 A 
ENDROOT
TORSDOF 0
ENDMDL
