MODEL 1
REMARK minimizedAffinity 6.49109983
REMARK minimizedRMSD -1
REMARK  0 active torsions:
REMARK  status: ('A' for Active; 'I' for Inactive)
ROOT
ATOM      1  C1  BNZ d   1       1.833  -1.793   0.287  0.00  0.00     0.000 A 
ATOM      2  C2  BNZ d   1       2.629  -2.896   0.450  0.00  0.00     0.000 A 
ATOM      3  C3  BNZ d   1       2.503  -3.692   1.554  0.00  0.00     0.000 A 
ATOM      4  C4  BNZ d   1       1.611  -3.362   2.511  0.00  0.00     0.000 A 
ATOM      5  C5  BNZ d   1       0.808  -2.249   2.365  0.00  0.00     0.000 A 
ATOM      6  C6  BNZ d   1       0.911  -1.472   1.234  0.00  0.00     0.000 A 
ENDROOT
TORSDOF 0
ENDMDL
