MODEL 1
REMARK minimizedAffinity 6.28393269
REMARK minimizedRMSD -1
REMARK  0 active torsions:
REMARK  status: ('A' for Active; 'I' for Inactive)
ROOT
ATOM      1  C1  BNZ d   1       1.062  -1.592   0.793  0.00  0.00     0.000 A 
ATOM      2  C2  BNZ d   1       1.889  -2.597   0.366  0.00  0.00     0.000 A 
ATOM      3  C3  BNZ d   1       2.405  -3.503   1.251  0.00  0.00     0.000 A 
ATOM      4  C4  BNZ d   1       2.126  -3.379   2.564  0.00  0.00     0.000 A 
ATOM      5  C5  BNZ d   1       1.301  -2.366   3.012  0.00  0.00     0.000 A 
ATOM      6  C6  BNZ d   1       0.753  -1.480   2.114  0.00  0.00     0.000 A 
ENDROOT
TORSDOF 0
ENDMDL
