MODEL 1
REMARK minimizedAffinity 4.17347717
REMARK minimizedRMSD -1
REMARK  0 active torsions:
REMARK  status: ('A' for Active; 'I' for Inactive)
ROOT
ATOM      1  C1  BNZ d   1      -3.940   0.865   0.725  0.00  0.00     0.000 A 
ATOM      2  C2  BNZ d   1      -3.498   0.489   1.965  0.00  0.00     0.000 A 
ATOM      3  C3  BNZ d   1      -2.634  -0.561   2.111  0.00  0.00     0.000 A 
ATOM      4  C4  BNZ d   1      -2.245  -1.256   1.023  0.00  0.00     0.000 A 
ATOM      5  C5  BNZ d   1      -2.690  -0.895  -0.233  0.00  0.00     0.000 A 
ATOM      6  C6  BNZ d   1      -3.529   0.186  -0.381  0.00  0.00     0.000 A 
ENDROOT
TORSDOF 0
ENDMDL
