MODEL 1
REMARK minimizedAffinity 3.13315845
REMARK minimizedRMSD -1
REMARK  0 active torsions:
REMARK  status: ('A' for Active; 'I' for Inactive)
ROOT
ATOM      1  C1  BNZ d   1      -1.182   3.362  -3.003  0.00  0.00     0.000 A 
ATOM      2  C2  BNZ d   1      -1.394   2.445  -2.009  0.00  0.00     0.000 A 
ATOM      3  C3  BNZ d   1      -1.320   1.104  -2.266  0.00  0.00     0.000 A 
ATOM      4  C4  BNZ d   1      -1.075   0.683  -3.524  0.00  0.00     0.000 A 
ATOM      5  C5  BNZ d   1      -0.868   1.596  -4.539  0.00  0.00     0.000 A 
ATOM      6  C6  BNZ d   1      -0.905   2.945  -4.268  0.00  0.00     0.000 A 
ENDROOT
TORSDOF 0
ENDMDL
