MODEL 1
REMARK minimizedAffinity 5.13860703
REMARK minimizedRMSD -1
REMARK  0 active torsions:
REMARK  status: ('A' for Active; 'I' for Inactive)
ROOT
ATOM      1  C1  BNZ d   1       5.999   1.670  -0.178  0.00  0.00     0.000 A 
ATOM      2  C2  BNZ d   1       6.000   3.018   0.065  0.00  0.00     0.000 A 
ATOM      3  C3  BNZ d   1       5.738   3.504   1.315  0.00  0.00     0.000 A 
ATOM      4  C4  BNZ d   1       5.436   2.646   2.311  0.00  0.00     0.000 A 
ATOM      5  C5  BNZ d   1       5.423   1.285   2.080  0.00  0.00     0.000 A 
ATOM      6  C6  BNZ d   1       5.725   0.797   0.829  0.00  0.00     0.000 A 
ENDROOT
TORSDOF 0
ENDMDL
