MODEL 1
REMARK minimizedAffinity 1.66615522
REMARK minimizedRMSD -1
REMARK  0 active torsions:
REMARK  status: ('A' for Active; 'I' for Inactive)
ROOT
ATOM      1  C1  BNZ d   1       5.996   2.404   1.317  0.00  0.00     0.000 A 
ATOM      2  C2  BNZ d   1       5.999   2.089  -0.015  0.00  0.00     0.000 A 
ATOM      3  C3  BNZ d   1       5.977   0.785  -0.426  0.00  0.00     0.000 A 
ATOM      4  C4  BNZ d   1       5.993  -0.201   0.494  0.00  0.00     0.000 A 
ATOM      5  C5  BNZ d   1       6.000   0.101   1.842  0.00  0.00     0.000 A 
ATOM      6  C6  BNZ d   1       5.982   1.415   2.252  0.00  0.00     0.000 A 
ENDROOT
TORSDOF 0
ENDMDL
