MODEL 1
REMARK minimizedAffinity 1.11296058
REMARK minimizedRMSD -1
REMARK  0 active torsions:
REMARK  status: ('A' for Active; 'I' for Inactive)
ROOT
ATOM      1  C1  BNZ d   1      -3.299   2.083  -2.566  0.00  0.00     0.000 A 
ATOM      2  C2  BNZ d   1      -3.213   3.298  -3.192  0.00  0.00     0.000 A 
ATOM      3  C3  BNZ d   1      -2.018   3.954  -3.286  0.00  0.00     0.000 A 
ATOM      4  C4  BNZ d   1      -0.919   3.414  -2.720  0.00  0.00     0.000 A 
ATOM      5  C5  BNZ d   1      -0.991   2.194  -2.078  0.00  0.00     0.000 A 
ATOM      6  C6  BNZ d   1      -2.189   1.518  -2.019  0.00  0.00     0.000 A 
ENDROOT
TORSDOF 0
ENDMDL
