MODEL 1
REMARK minimizedAffinity 1.56157064
REMARK minimizedRMSD -1
REMARK  0 active torsions:
REMARK  status: ('A' for Active; 'I' for Inactive)
ROOT
ATOM      1  C1  BNZ d   1       0.661  -1.815   2.384  0.00  0.00     0.000 A 
ATOM      2  C2  BNZ d   1       1.087  -3.071   2.726  0.00  0.00     0.000 A 
ATOM      3  C3  BNZ d   1       1.891  -3.790   1.887  0.00  0.00     0.000 A 
ATOM      4  C4  BNZ d   1       2.234  -3.271   0.691  0.00  0.00     0.000 A 
ATOM      5  C5  BNZ d   1       1.805  -2.010   0.327  0.00  0.00     0.000 A 
ATOM      6  C6  BNZ d   1       1.028  -1.273   1.191  0.00  0.00     0.000 A 
ENDROOT
TORSDOF 0
ENDMDL
