MODEL 1
REMARK minimizedAffinity 12.3296003
REMARK minimizedRMSD -1
REMARK  0 active torsions:
REMARK  status: ('A' for Active; 'I' for Inactive)
ROOT
ATOM      1  N1  IND d   1      -2.177  -4.638   0.496  0.00  0.00    -0.196 N 
ATOM      2  C2  IND d   1      -2.428  -3.326   0.206  0.00  0.00     0.054 A 
ATOM      3  C3  IND d   1      -1.271  -2.669  -0.035  0.00  0.00    -0.031 A 
ATOM      4  C4  IND d   1       1.139  -3.571  -0.108  0.00  0.00     0.051 A 
ATOM      5  C5  IND d   1       1.874  -4.699   0.126  0.00  0.00    -0.031 A 
ATOM      6  C6  IND d   1       1.284  -5.890   0.500  0.00  0.00     0.015 A 
ATOM      7  C7  IND d   1      -0.070  -5.999   0.644  0.00  0.00    -0.016 A 
ATOM      8  C8  IND d   1      -0.819  -4.854   0.414  0.00  0.00    -0.047 A 
ATOM      9  C9  IND d   1      -0.222  -3.632   0.076  0.00  0.00    -0.096 A 
ATOM     10  HN1 IND d   1      -2.768  -5.229   0.697  0.00  0.00     0.298 HD
ENDROOT
TORSDOF 0
ENDMDL
