MODEL 1
REMARK minimizedAffinity 11.6835365
REMARK minimizedRMSD -1
REMARK  0 active torsions:
REMARK  status: ('A' for Active; 'I' for Inactive)
ROOT
ATOM      1  N1  IND d   1       1.751  -4.287  -0.149  0.00  0.00    -0.196 N 
ATOM      2  C2  IND d   1       1.894  -5.539   0.381  0.00  0.00     0.054 A 
ATOM      3  C3  IND d   1       0.704  -5.999   0.829  0.00  0.00    -0.031 A 
ATOM      4  C4  IND d   1      -1.624  -4.908   0.702  0.00  0.00     0.051 A 
ATOM      5  C5  IND d   1      -2.252  -3.750   0.337  0.00  0.00    -0.031 A 
ATOM      6  C6  IND d   1      -1.565  -2.692  -0.222  0.00  0.00     0.015 A 
ATOM      7  C7  IND d   1      -0.220  -2.757  -0.449  0.00  0.00    -0.016 A 
ATOM      8  C8  IND d   1       0.423  -3.928  -0.073  0.00  0.00    -0.047 A 
ATOM      9  C9  IND d   1      -0.262  -4.989   0.534  0.00  0.00    -0.096 A 
ATOM     10  HN1 IND d   1       2.384  -3.805  -0.475  0.00  0.00     0.298 HD
ENDROOT
TORSDOF 0
ENDMDL
