MODEL 1
REMARK minimizedAffinity 9.80257511
REMARK minimizedRMSD -1
REMARK  0 active torsions:
REMARK  status: ('A' for Active; 'I' for Inactive)
ROOT
ATOM      1  N1  IND d   1      -0.818  -3.836   3.456  0.00  0.00    -0.196 N 
ATOM      2  C2  IND d   1      -1.341  -2.684   3.972  0.00  0.00     0.054 A 
ATOM      3  C3  IND d   1      -1.806  -1.893   2.979  0.00  0.00    -0.031 A 
ATOM      4  C4  IND d   1      -1.902  -2.335   0.445  0.00  0.00     0.051 A 
ATOM      5  C5  IND d   1      -1.511  -3.234  -0.507  0.00  0.00    -0.031 A 
ATOM      6  C6  IND d   1      -0.859  -4.405  -0.180  0.00  0.00     0.015 A 
ATOM      7  C7  IND d   1      -0.582  -4.727   1.119  0.00  0.00    -0.016 A 
ATOM      8  C8  IND d   1      -0.970  -3.813   2.087  0.00  0.00    -0.047 A 
ATOM      9  C9  IND d   1      -1.595  -2.603   1.758  0.00  0.00    -0.096 A 
ATOM     10  HN1 IND d   1      -0.454  -4.470   3.911  0.00  0.00     0.298 HD
ENDROOT
TORSDOF 0
ENDMDL
