MODEL 1
REMARK minimizedAffinity 3.59040046
REMARK minimizedRMSD -1
REMARK  0 active torsions:
REMARK  status: ('A' for Active; 'I' for Inactive)
ROOT
ATOM      1  N1  IND d   1      -5.912  -0.622   1.231  0.00  0.00    -0.196 N 
ATOM      2  C2  IND d   1      -5.928   0.659   0.755  0.00  0.00     0.054 A 
ATOM      3  C3  IND d   1      -5.988   1.540   1.779  0.00  0.00    -0.031 A 
ATOM      4  C4  IND d   1      -5.969   1.104   4.316  0.00  0.00     0.051 A 
ATOM      5  C5  IND d   1      -5.999   0.093   5.235  0.00  0.00    -0.031 A 
ATOM      6  C6  IND d   1      -5.999  -1.235   4.859  0.00  0.00     0.015 A 
ATOM      7  C7  IND d   1      -5.957  -1.603   3.544  0.00  0.00    -0.016 A 
ATOM      8  C8  IND d   1      -5.934  -0.579   2.608  0.00  0.00    -0.047 A 
ATOM      9  C9  IND d   1      -5.976   0.770   2.982  0.00  0.00    -0.096 A 
ATOM     10  HN1 IND d   1      -5.893  -1.335   0.751  0.00  0.00     0.298 HD
ENDROOT
TORSDOF 0
ENDMDL
