MODEL 1
REMARK minimizedAffinity 5.44366264
REMARK minimizedRMSD -1
REMARK  0 active torsions:
REMARK  status: ('A' for Active; 'I' for Inactive)
ROOT
ATOM      1  N1  IND d   1      -2.738   1.464  -0.804  0.00  0.00    -0.196 N 
ATOM      2  C2  IND d   1      -4.070   1.476  -0.495  0.00  0.00     0.054 A 
ATOM      3  C3  IND d   1      -4.734   0.563  -1.239  0.00  0.00    -0.031 A 
ATOM      4  C4  IND d   1      -3.820  -1.128  -2.952  0.00  0.00     0.051 A 
ATOM      5  C5  IND d   1      -2.672  -1.494  -3.597  0.00  0.00    -0.031 A 
ATOM      6  C6  IND d   1      -1.463  -0.882  -3.338  0.00  0.00     0.015 A 
ATOM      7  C7  IND d   1      -1.354   0.115  -2.410  0.00  0.00    -0.016 A 
ATOM      8  C8  IND d   1      -2.518   0.494  -1.758  0.00  0.00    -0.047 A 
ATOM      9  C9  IND d   1      -3.756  -0.094  -2.048  0.00  0.00    -0.096 A 
ATOM     10  HN1 IND d   1      -2.139   1.976  -0.461  0.00  0.00     0.298 HD
ENDROOT
TORSDOF 0
ENDMDL
