MODEL 1
REMARK minimizedAffinity 21.5568199
REMARK minimizedRMSD -1
REMARK  0 active torsions:
REMARK  status: ('A' for Active; 'I' for Inactive)
ROOT
ATOM      1  N1  IND d   1      -2.114  -3.602   0.030  0.00  0.00    -0.196 N 
ATOM      2  C2  IND d   1      -0.821  -4.006  -0.156  0.00  0.00     0.054 A 
ATOM      3  C3  IND d   1      -0.220  -3.239  -1.094  0.00  0.00    -0.031 A 
ATOM      4  C4  IND d   1      -1.138  -1.205  -2.378  0.00  0.00     0.051 A 
ATOM      5  C5  IND d   1      -2.279  -0.480  -2.573  0.00  0.00    -0.031 A 
ATOM      6  C6  IND d   1      -3.448  -0.763  -1.895  0.00  0.00     0.015 A 
ATOM      7  C7  IND d   1      -3.514  -1.779  -0.984  0.00  0.00    -0.016 A 
ATOM      8  C8  IND d   1      -2.359  -2.521  -0.788  0.00  0.00    -0.047 A 
ATOM      9  C9  IND d   1      -1.182  -2.266  -1.505  0.00  0.00    -0.096 A 
ATOM     10  HN1 IND d   1      -2.680  -3.963   0.568  0.00  0.00     0.298 HD
ENDROOT
TORSDOF 0
ENDMDL
