MODEL 1
REMARK minimizedAffinity 5.12225819
REMARK minimizedRMSD -1
REMARK  0 active torsions:
REMARK  status: ('A' for Active; 'I' for Inactive)
ROOT
ATOM      1  N1  IND d   1      -0.368  -2.064   4.680  0.00  0.00    -0.196 N 
ATOM      2  C2  IND d   1       0.071  -2.180   5.969  0.00  0.00     0.054 A 
ATOM      3  C3  IND d   1       1.411  -2.359   5.995  0.00  0.00    -0.031 A 
ATOM      4  C4  IND d   1       3.095  -2.393   4.048  0.00  0.00     0.051 A 
ATOM      5  C5  IND d   1       3.164  -2.364   2.684  0.00  0.00    -0.031 A 
ATOM      6  C6  IND d   1       2.037  -2.228   1.899  0.00  0.00     0.015 A 
ATOM      7  C7  IND d   1       0.794  -2.104   2.453  0.00  0.00    -0.016 A 
ATOM      8  C8  IND d   1       0.719  -2.141   3.838  0.00  0.00    -0.047 A 
ATOM      9  C9  IND d   1       1.855  -2.321   4.638  0.00  0.00    -0.096 A 
ATOM     10  HN1 IND d   1      -1.186  -1.961   4.436  0.00  0.00     0.298 HD
ENDROOT
TORSDOF 0
ENDMDL
