MODEL 1
REMARK minimizedAffinity 8.34478569
REMARK minimizedRMSD -1
REMARK  0 active torsions:
REMARK  status: ('A' for Active; 'I' for Inactive)
ROOT
ATOM      1  N1  IND d   1      -1.769  -4.502   0.376  0.00  0.00    -0.196 N 
ATOM      2  C2  IND d   1      -1.895  -3.197  -0.012  0.00  0.00     0.054 A 
ATOM      3  C3  IND d   1      -0.676  -2.643  -0.200  0.00  0.00    -0.031 A 
ATOM      4  C4  IND d   1       1.655  -3.721  -0.028  0.00  0.00     0.051 A 
ATOM      5  C5  IND d   1       2.281  -4.882   0.330  0.00  0.00    -0.031 A 
ATOM      6  C6  IND d   1       1.575  -5.999   0.727  0.00  0.00     0.015 A 
ATOM      7  C7  IND d   1       0.209  -6.000   0.770  0.00  0.00    -0.016 A 
ATOM      8  C8  IND d   1      -0.430  -4.821   0.414  0.00  0.00    -0.047 A 
ATOM      9  C9  IND d   1       0.284  -3.671   0.051  0.00  0.00    -0.096 A 
ATOM     10  HN1 IND d   1      -2.418  -5.034   0.564  0.00  0.00     0.298 HD
ENDROOT
TORSDOF 0
ENDMDL
