MODEL 1
REMARK minimizedAffinity -1.58685815
REMARK minimizedRMSD -1
REMARK  0 active torsions:
REMARK  status: ('A' for Active; 'I' for Inactive)
ROOT
ATOM      1  N1  IND d   1       0.190   1.106  -1.001  0.00  0.00    -0.196 N 
ATOM      2  C2  IND d   1      -0.723   2.054  -0.631  0.00  0.00     0.054 A 
ATOM      3  C3  IND d   1      -0.842   2.093   0.715  0.00  0.00    -0.031 A 
ATOM      4  C4  IND d   1       0.436   0.761   2.509  0.00  0.00     0.051 A 
ATOM      5  C5  IND d   1       1.345  -0.249   2.658  0.00  0.00    -0.031 A 
ATOM      6  C6  IND d   1       1.928  -0.870   1.572  0.00  0.00     0.015 A 
ATOM      7  C7  IND d   1       1.633  -0.494   0.293  0.00  0.00    -0.016 A 
ATOM      8  C8  IND d   1       0.705   0.527   0.138  0.00  0.00    -0.047 A 
ATOM      9  C9  IND d   1       0.078   1.131   1.235  0.00  0.00    -0.096 A 
ATOM     10  HN1 IND d   1       0.406   0.905  -1.808  0.00  0.00     0.298 HD
ENDROOT
TORSDOF 0
ENDMDL
