MODEL 1
REMARK minimizedAffinity 7.93803644
REMARK minimizedRMSD -1
REMARK  0 active torsions:
REMARK  status: ('A' for Active; 'I' for Inactive)
ROOT
ATOM      1  N1  IND d   1      -0.151   1.682  -0.795  0.00  0.00    -0.196 N 
ATOM      2  C2  IND d   1       0.806   2.623  -0.540  0.00  0.00     0.054 A 
ATOM      3  C3  IND d   1       0.322   3.863  -0.778  0.00  0.00    -0.031 A 
ATOM      4  C4  IND d   1      -2.043   4.586  -1.493  0.00  0.00     0.051 A 
ATOM      5  C5  IND d   1      -3.252   4.081  -1.882  0.00  0.00    -0.031 A 
ATOM      6  C6  IND d   1      -3.495   2.724  -1.926  0.00  0.00     0.015 A 
ATOM      7  C7  IND d   1      -2.537   1.816  -1.571  0.00  0.00    -0.016 A 
ATOM      8  C8  IND d   1      -1.306   2.325  -1.183  0.00  0.00    -0.047 A 
ATOM      9  C9  IND d   1      -1.040   3.700  -1.177  0.00  0.00    -0.096 A 
ATOM     10  HN1 IND d   1      -0.050   0.831  -0.725  0.00  0.00     0.298 HD
ENDROOT
TORSDOF 0
ENDMDL
