MODEL 1
REMARK minimizedAffinity 5.96317291
REMARK minimizedRMSD -1
REMARK  0 active torsions:
REMARK  status: ('A' for Active; 'I' for Inactive)
ROOT
ATOM      1  C2' OXE d   1      -3.998   2.204   4.163  0.00  0.00     0.078 C 
ATOM      2  C1' OXE d   1      -3.491  -0.378   3.186  0.00  0.00     0.078 C 
ATOM      3  C1  OXE d   1      -2.542   0.724   2.787  0.00  0.00    -0.078 A 
ATOM      4  C2  OXE d   1      -2.824   1.993   3.231  0.00  0.00    -0.078 A 
ATOM      5  C3  OXE d   1      -1.950   3.037   2.938  0.00  0.00     0.003 A 
ATOM      6  C4  OXE d   1      -0.872   2.835   2.068  0.00  0.00    -0.002 A 
ATOM      7  C5  OXE d   1      -0.589   1.558   1.572  0.00  0.00    -0.002 A 
ATOM      8  C6  OXE d   1      -1.388   0.486   1.955  0.00  0.00     0.003 A 
ENDROOT
TORSDOF 0
ENDMDL
