MODEL 1
REMARK minimizedAffinity -1.6813072
REMARK minimizedRMSD -1
REMARK  0 active torsions:
REMARK  status: ('A' for Active; 'I' for Inactive)
ROOT
ATOM      1  C2' OXE d   1      -3.039  -1.284   3.397  0.00  0.00     0.078 C 
ATOM      2  C1' OXE d   1      -3.834   1.404   3.244  0.00  0.00     0.078 C 
ATOM      3  C1  OXE d   1      -2.469   1.042   2.713  0.00  0.00    -0.078 A 
ATOM      4  C2  OXE d   1      -2.070  -0.267   2.835  0.00  0.00    -0.078 A 
ATOM      5  C3  OXE d   1      -0.842  -0.665   2.312  0.00  0.00     0.003 A 
ATOM      6  C4  OXE d   1       0.052   0.284   1.802  0.00  0.00    -0.002 A 
ATOM      7  C5  OXE d   1      -0.319   1.630   1.706  0.00  0.00    -0.002 A 
ATOM      8  C6  OXE d   1      -1.590   2.017   2.117  0.00  0.00     0.003 A 
ENDROOT
TORSDOF 0
ENDMDL
