MODEL 1
REMARK minimizedAffinity -0.50155139
REMARK minimizedRMSD -1
REMARK  0 active torsions:
REMARK  status: ('A' for Active; 'I' for Inactive)
ROOT
ATOM      1  C2' OXE d   1       1.046   1.131   0.505  0.00  0.00     0.078 C 
ATOM      2  C1' OXE d   1      -0.128  -1.145   1.654  0.00  0.00     0.078 C 
ATOM      3  C1  OXE d   1      -0.864   0.166   1.780  0.00  0.00    -0.078 A 
ATOM      4  C2  OXE d   1      -0.259   1.283   1.255  0.00  0.00    -0.078 A 
ATOM      5  C3  OXE d   1      -0.920   2.507   1.296  0.00  0.00     0.003 A 
ATOM      6  C4  OXE d   1      -2.123   2.641   2.000  0.00  0.00    -0.002 A 
ATOM      7  C5  OXE d   1      -2.736   1.523   2.577  0.00  0.00    -0.002 A 
ATOM      8  C6  OXE d   1      -2.142   0.274   2.439  0.00  0.00     0.003 A 
ENDROOT
TORSDOF 0
ENDMDL
