MODEL 1
REMARK minimizedAffinity -3.23677278
REMARK minimizedRMSD -1
REMARK  0 active torsions:
REMARK  status: ('A' for Active; 'I' for Inactive)
ROOT
ATOM      1  C2' OXE d   1       0.661   1.201   0.476  0.00  0.00     0.078 C 
ATOM      2  C1' OXE d   1      -0.410  -1.222   1.406  0.00  0.00     0.078 C 
ATOM      3  C1  OXE d   1      -1.087   0.056   1.833  0.00  0.00    -0.078 A 
ATOM      4  C2  OXE d   1      -0.529   1.239   1.411  0.00  0.00    -0.078 A 
ATOM      5  C3  OXE d   1      -1.145   2.445   1.731  0.00  0.00     0.003 A 
ATOM      6  C4  OXE d   1      -2.239   2.472   2.605  0.00  0.00    -0.002 A 
ATOM      7  C5  OXE d   1      -2.800   1.281   3.078  0.00  0.00    -0.002 A 
ATOM      8  C6  OXE d   1      -2.263   0.066   2.668  0.00  0.00     0.003 A 
ENDROOT
TORSDOF 0
ENDMDL
