MODEL 1
REMARK minimizedAffinity 0.455346644
REMARK minimizedRMSD -1
REMARK  0 active torsions:
REMARK  status: ('A' for Active; 'I' for Inactive)
ROOT
ATOM      1  C2' OXE d   1       0.951   0.521   0.473  0.00  0.00     0.078 C 
ATOM      2  C1' OXE d   1      -0.441  -1.453   1.904  0.00  0.00     0.078 C 
ATOM      3  C1  OXE d   1      -0.905  -0.024   2.043  0.00  0.00    -0.078 A 
ATOM      4  C2  OXE d   1      -0.189   0.941   1.376  0.00  0.00    -0.078 A 
ATOM      5  C3  OXE d   1      -0.607   2.267   1.426  0.00  0.00     0.003 A 
ATOM      6  C4  OXE d   1      -1.656   2.649   2.271  0.00  0.00    -0.002 A 
ATOM      7  C5  OXE d   1      -2.373   1.687   2.991  0.00  0.00    -0.002 A 
ATOM      8  C6  OXE d   1      -2.038   0.345   2.855  0.00  0.00     0.003 A 
ENDROOT
TORSDOF 0
ENDMDL
