MODEL 1
REMARK minimizedAffinity -0.939669967
REMARK minimizedRMSD -1
REMARK  0 active torsions:
REMARK  status: ('A' for Active; 'I' for Inactive)
ROOT
ATOM      1  C2' OXE d   1      -3.405   2.121   3.325  0.00  0.00     0.078 C 
ATOM      2  C1' OXE d   1      -2.922  -0.502   2.450  0.00  0.00     0.078 C 
ATOM      3  C1  OXE d   1      -1.841   0.525   2.225  0.00  0.00    -0.078 A 
ATOM      4  C2  OXE d   1      -2.104   1.816   2.614  0.00  0.00    -0.078 A 
ATOM      5  C3  OXE d   1      -1.120   2.791   2.479  0.00  0.00     0.003 A 
ATOM      6  C4  OXE d   1       0.076   2.503   1.811  0.00  0.00    -0.002 A 
ATOM      7  C5  OXE d   1       0.348   1.203   1.371  0.00  0.00    -0.002 A 
ATOM      8  C6  OXE d   1      -0.580   0.195   1.608  0.00  0.00     0.003 A 
ENDROOT
TORSDOF 0
ENDMDL
