MODEL 1
REMARK minimizedAffinity -1.59841931
REMARK minimizedRMSD -1
REMARK  0 active torsions:
REMARK  status: ('A' for Active; 'I' for Inactive)
ROOT
ATOM      1  C2' OXE d   1       2.671  -0.392   0.815  0.00  0.00     0.078 C 
ATOM      2  C1' OXE d   1       1.028  -1.140   2.966  0.00  0.00     0.078 C 
ATOM      3  C1  OXE d   1       0.631   0.076   2.167  0.00  0.00    -0.078 A 
ATOM      4  C2  OXE d   1       1.466   0.462   1.146  0.00  0.00    -0.078 A 
ATOM      5  C3  OXE d   1       1.118   1.545   0.343  0.00  0.00     0.003 A 
ATOM      6  C4  OXE d   1       0.008   2.336   0.662  0.00  0.00    -0.002 A 
ATOM      7  C5  OXE d   1      -0.834   1.983   1.723  0.00  0.00    -0.002 A 
ATOM      8  C6  OXE d   1      -0.560   0.835   2.457  0.00  0.00     0.003 A 
ENDROOT
TORSDOF 0
ENDMDL
