MODEL 1
REMARK minimizedAffinity 2.77605057
REMARK minimizedRMSD -1
REMARK  0 active torsions:
REMARK  status: ('A' for Active; 'I' for Inactive)
ROOT
ATOM      1  C2' OXE d   1      -1.953   2.099   2.943  0.00  0.00     0.078 C 
ATOM      2  C1' OXE d   1      -2.059  -0.696   2.713  0.00  0.00     0.078 C 
ATOM      3  C1  OXE d   1      -0.921   0.023   2.032  0.00  0.00    -0.078 A 
ATOM      4  C2  OXE d   1      -0.903   1.394   2.111  0.00  0.00    -0.078 A 
ATOM      5  C3  OXE d   1       0.154   2.103   1.548  0.00  0.00     0.003 A 
ATOM      6  C4  OXE d   1       1.116   1.445   0.772  0.00  0.00    -0.002 A 
ATOM      7  C5  OXE d   1       1.093   0.052   0.646  0.00  0.00    -0.002 A 
ATOM      8  C6  OXE d   1       0.108  -0.677   1.304  0.00  0.00     0.003 A 
ENDROOT
TORSDOF 0
ENDMDL
