MODEL 1
REMARK minimizedAffinity 5.44995785
REMARK minimizedRMSD -1
REMARK  0 active torsions:
REMARK  status: ('A' for Active; 'I' for Inactive)
ROOT
ATOM      1  C2' OXE d   1      -2.750   2.320   2.853  0.00  0.00     0.078 C 
ATOM      2  C1' OXE d   1      -2.099  -0.329   2.193  0.00  0.00     0.078 C 
ATOM      3  C1  OXE d   1      -1.105   0.749   1.838  0.00  0.00    -0.078 A 
ATOM      4  C2  OXE d   1      -1.453   2.047   2.123  0.00  0.00    -0.078 A 
ATOM      5  C3  OXE d   1      -0.550   3.075   1.867  0.00  0.00     0.003 A 
ATOM      6  C4  OXE d   1       0.644   2.816   1.183  0.00  0.00    -0.002 A 
ATOM      7  C5  OXE d   1       1.000   1.505   0.848  0.00  0.00    -0.002 A 
ATOM      8  C6  OXE d   1       0.158   0.458   1.206  0.00  0.00     0.003 A 
ENDROOT
TORSDOF 0
ENDMDL
