MODEL 1
REMARK minimizedAffinity -1.25488436
REMARK minimizedRMSD -1
REMARK  0 active torsions:
REMARK  status: ('A' for Active; 'I' for Inactive)
ROOT
ATOM      1  C2' OXE d   1       0.499   0.434   0.840  0.00  0.00     0.078 C 
ATOM      2  C1' OXE d   1      -1.804  -0.946   1.660  0.00  0.00     0.078 C 
ATOM      3  C1  OXE d   1      -1.689   0.512   2.027  0.00  0.00    -0.078 A 
ATOM      4  C2  OXE d   1      -0.538   1.167   1.662  0.00  0.00    -0.078 A 
ATOM      5  C3  OXE d   1      -0.405   2.527   1.929  0.00  0.00     0.003 A 
ATOM      6  C4  OXE d   1      -1.365   3.196   2.698  0.00  0.00    -0.002 A 
ATOM      7  C5  OXE d   1      -2.526   2.537   3.114  0.00  0.00    -0.002 A 
ATOM      8  C6  OXE d   1      -2.723   1.209   2.751  0.00  0.00     0.003 A 
ENDROOT
TORSDOF 0
ENDMDL
