MODEL 1
REMARK minimizedAffinity -5.88162184
REMARK minimizedRMSD -1
REMARK  0 active torsions:
REMARK  status: ('A' for Active; 'I' for Inactive)
ROOT
ATOM      1  C2' OXE d   1       1.235  -0.053   0.516  0.00  0.00     0.078 C 
ATOM      2  C1' OXE d   1      -0.535  -1.969   1.554  0.00  0.00     0.078 C 
ATOM      3  C1  OXE d   1      -0.961  -0.522   1.594  0.00  0.00    -0.078 A 
ATOM      4  C2  OXE d   1      -0.069   0.413   1.127  0.00  0.00    -0.078 A 
ATOM      5  C3  OXE d   1      -0.433   1.756   1.091  0.00  0.00     0.003 A 
ATOM      6  C4  OXE d   1      -1.637   2.179   1.667  0.00  0.00    -0.002 A 
ATOM      7  C5  OXE d   1      -2.543   1.247   2.185  0.00  0.00    -0.002 A 
ATOM      8  C6  OXE d   1      -2.239  -0.108   2.118  0.00  0.00     0.003 A 
ENDROOT
TORSDOF 0
ENDMDL
