MODEL 1
REMARK minimizedAffinity -2.68813682
REMARK minimizedRMSD -1
REMARK  0 active torsions:
REMARK  status: ('A' for Active; 'I' for Inactive)
ROOT
ATOM      1  C2' OXE d   1      -2.521   0.003   2.461  0.00  0.00     0.078 C 
ATOM      2  C1' OXE d   1      -1.145   2.187   3.564  0.00  0.00     0.078 C 
ATOM      3  C1  OXE d   1      -0.525   1.491   2.378  0.00  0.00    -0.078 A 
ATOM      4  C2  OXE d   1      -1.183   0.395   1.874  0.00  0.00    -0.078 A 
ATOM      5  C3  OXE d   1      -0.683  -0.251   0.747  0.00  0.00     0.003 A 
ATOM      6  C4  OXE d   1       0.561   0.111   0.216  0.00  0.00    -0.002 A 
ATOM      7  C5  OXE d   1       1.267   1.200   0.739  0.00  0.00    -0.002 A 
ATOM      8  C6  OXE d   1       0.718   1.926   1.791  0.00  0.00     0.003 A 
ENDROOT
TORSDOF 0
ENDMDL
