MODEL 1
REMARK minimizedAffinity -4.00369883
REMARK minimizedRMSD -1
REMARK  0 active torsions:
REMARK  status: ('A' for Active; 'I' for Inactive)
ROOT
ATOM      1  C2' OXE d   1      -3.247   2.163   2.921  0.00  0.00     0.078 C 
ATOM      2  C1' OXE d   1      -2.647  -0.564   2.636  0.00  0.00     0.078 C 
ATOM      3  C1  OXE d   1      -1.683   0.434   2.044  0.00  0.00    -0.078 A 
ATOM      4  C2  OXE d   1      -2.009   1.765   2.148  0.00  0.00    -0.078 A 
ATOM      5  C3  OXE d   1      -1.128   2.729   1.667  0.00  0.00     0.003 A 
ATOM      6  C4  OXE d   1       0.011   2.352   0.944  0.00  0.00    -0.002 A 
ATOM      7  C5  OXE d   1       0.340   1.001   0.793  0.00  0.00    -0.002 A 
ATOM      8  C6  OXE d   1      -0.472   0.032   1.372  0.00  0.00     0.003 A 
ENDROOT
TORSDOF 0
ENDMDL
