MODEL 1
REMARK minimizedAffinity -0.949150085
REMARK minimizedRMSD -1
REMARK  0 active torsions:
REMARK  status: ('A' for Active; 'I' for Inactive)
ROOT
ATOM      1  C2' OXE d   1      -2.494  -2.458  -2.676  0.00  0.00     0.078 C 
ATOM      2  C1' OXE d   1      -1.104  -3.977  -0.768  0.00  0.00     0.078 C 
ATOM      3  C1  OXE d   1      -0.532  -3.905  -2.162  0.00  0.00    -0.078 A 
ATOM      4  C2  OXE d   1      -1.244  -3.198  -3.101  0.00  0.00    -0.078 A 
ATOM      5  C3  OXE d   1      -0.733  -3.055  -4.388  0.00  0.00     0.003 A 
ATOM      6  C4  OXE d   1       0.418  -3.751  -4.775  0.00  0.00    -0.002 A 
ATOM      7  C5  OXE d   1       1.136  -4.509  -3.845  0.00  0.00    -0.002 A 
ATOM      8  C6  OXE d   1       0.699  -4.562  -2.526  0.00  0.00     0.003 A 
ENDROOT
TORSDOF 0
ENDMDL
