MODEL 1
REMARK minimizedAffinity -0.661480904
REMARK minimizedRMSD -1
REMARK  0 active torsions:
REMARK  status: ('A' for Active; 'I' for Inactive)
ROOT
ATOM      1  C2' OXE d   1      -3.211   1.638   3.593  0.00  0.00     0.078 C 
ATOM      2  C1' OXE d   1      -1.850  -0.631   2.656  0.00  0.00     0.078 C 
ATOM      3  C1  OXE d   1      -1.461   0.709   2.083  0.00  0.00    -0.078 A 
ATOM      4  C2  OXE d   1      -2.165   1.808   2.512  0.00  0.00    -0.078 A 
ATOM      5  C3  OXE d   1      -1.811   3.075   2.056  0.00  0.00     0.003 A 
ATOM      6  C4  OXE d   1      -0.849   3.222   1.049  0.00  0.00    -0.002 A 
ATOM      7  C5  OXE d   1      -0.148   2.111   0.569  0.00  0.00    -0.002 A 
ATOM      8  C6  OXE d   1      -0.412   0.855   1.104  0.00  0.00     0.003 A 
ENDROOT
TORSDOF 0
ENDMDL
