MODEL 1
REMARK minimizedAffinity -3.02088571
REMARK minimizedRMSD -1
REMARK  1 active torsions:
REMARK  status: ('A' for Active; 'I' for Inactive)
REMARK    1  A    between atoms: C1_2  and  C2_3 
ROOT
ATOM      1  C2  UNL d   1      -0.380   0.120  -0.315  0.00  0.00    -0.073 A 
ATOM      2  C3  UNL d   1      -0.710   1.479  -0.276  0.00  0.00    -0.002 A 
ATOM      3  C4  UNL d   1       0.209   2.414   0.203  0.00  0.00     0.004 A 
ATOM      4  C5  UNL d   1       1.467   2.001   0.642  0.00  0.00    -0.004 A 
ATOM      5  C6  UNL d   1       1.819   0.649   0.600  0.00  0.00    -0.075 A 
ATOM      6  C7  UNL d   1       3.168   0.188   1.070  0.00  0.00     0.076 C 
ATOM      7  C8  UNL d   1       0.891  -0.284   0.120  0.00  0.00     0.001 A 
ENDROOT
BRANCH   1   8
ATOM      8  C1  UNL d   1      -1.366  -0.893  -0.838  0.00  0.00     0.053 C 
ATOM      9  C   UNL d   1      -2.004  -0.445  -2.143  0.00  0.00     0.018 C 
ENDBRANCH   1   8
TORSDOF 1
ENDMDL
