MODEL 1
REMARK minimizedAffinity -4.17882109
REMARK minimizedRMSD -1
REMARK  1 active torsions:
REMARK  status: ('A' for Active; 'I' for Inactive)
REMARK    1  A    between atoms: C1_2  and  C2_3 
ROOT
ATOM      1  C2  UNL d   1       0.289   0.430  -0.174  0.00  0.00    -0.073 A 
ATOM      2  C3  UNL d   1      -0.573   0.302   0.921  0.00  0.00    -0.002 A 
ATOM      3  C4  UNL d   1      -1.914  -0.030   0.727  0.00  0.00     0.004 A 
ATOM      4  C5  UNL d   1      -2.405  -0.244  -0.561  0.00  0.00    -0.004 A 
ATOM      5  C6  UNL d   1      -1.557  -0.132  -1.667  0.00  0.00    -0.075 A 
ATOM      6  C7  UNL d   1      -2.070  -0.357  -3.059  0.00  0.00     0.076 C 
ATOM      7  C8  UNL d   1      -0.211   0.204  -1.464  0.00  0.00     0.001 A 
ENDROOT
BRANCH   1   8
ATOM      8  C1  UNL d   1       1.740   0.782   0.031  0.00  0.00     0.053 C 
ATOM      9  C   UNL d   1       2.271   0.262   1.358  0.00  0.00     0.018 C 
ENDBRANCH   1   8
TORSDOF 1
ENDMDL
