MODEL 1
REMARK minimizedAffinity -6.47654724
REMARK minimizedRMSD -1
REMARK  1 active torsions:
REMARK  status: ('A' for Active; 'I' for Inactive)
REMARK    1  A    between atoms: C1_2  and  C2_3 
ROOT
ATOM      1  C2  UNL d   1       1.655   0.013   0.133  0.00  0.00    -0.073 A 
ATOM      2  C3  UNL d   1       2.977   0.388   0.398  0.00  0.00    -0.002 A 
ATOM      3  C4  UNL d   1       3.727  -0.302   1.352  0.00  0.00     0.004 A 
ATOM      4  C5  UNL d   1       3.167  -1.375   2.044  0.00  0.00    -0.004 A 
ATOM      5  C6  UNL d   1       1.851  -1.772   1.784  0.00  0.00    -0.075 A 
ATOM      6  C7  UNL d   1       1.233  -2.924   2.521  0.00  0.00     0.076 C 
ATOM      7  C8  UNL d   1       1.104  -1.073   0.827  0.00  0.00     0.001 A 
ENDROOT
BRANCH   1   8
ATOM      8  C1  UNL d   1       0.844   0.750  -0.901  0.00  0.00     0.053 C 
ATOM      9  C   UNL d   1      -0.627   0.368  -0.850  0.00  0.00     0.018 C 
ENDBRANCH   1   8
TORSDOF 1
ENDMDL
