MODEL 1
REMARK minimizedAffinity -2.97654772
REMARK minimizedRMSD -1
REMARK  0 active torsions:
REMARK  status: ('A' for Active; 'I' for Inactive)
ROOT
ATOM      1  C   UNL d   1       1.077   4.114  -5.969  0.00  0.00     0.078 C 
ATOM      2  C1  UNL d   1      -0.408   3.908  -5.987  0.00  0.00    -0.077 A 
ATOM      3  C2  UNL d   1      -1.288   4.997  -5.993  0.00  0.00    -0.001 A 
ATOM      4  C3  UNL d   1      -2.668   4.789  -6.000  0.00  0.00     0.003 A 
ATOM      5  C4  UNL d   1      -3.181   3.494  -6.000  0.00  0.00    -0.005 A 
ATOM      6  C5  UNL d   1      -2.314   2.404  -5.992  0.00  0.00     0.003 A 
ATOM      7  C6  UNL d   1      -0.933   2.609  -5.985  0.00  0.00    -0.001 A 
ENDROOT
TORSDOF 0
ENDMDL
