MODEL 1
REMARK minimizedAffinity -2.096596
REMARK minimizedRMSD -1
REMARK  0 active torsions:
REMARK  status: ('A' for Active; 'I' for Inactive)
ROOT
ATOM      1  C   UNL d   1       0.224   4.723  -5.990  0.00  0.00     0.078 C 
ATOM      2  C1  UNL d   1       1.723   4.759  -5.986  0.00  0.00    -0.077 A 
ATOM      3  C2  UNL d   1       2.416   5.976  -5.992  0.00  0.00    -0.001 A 
ATOM      4  C3  UNL d   1       3.811   5.994  -5.998  0.00  0.00     0.003 A 
ATOM      5  C4  UNL d   1       4.527   4.798  -6.000  0.00  0.00    -0.005 A 
ATOM      6  C5  UNL d   1       3.847   3.582  -5.997  0.00  0.00     0.003 A 
ATOM      7  C6  UNL d   1       2.451   3.562  -5.991  0.00  0.00    -0.001 A 
ENDROOT
TORSDOF 0
ENDMDL
