MODEL 1
REMARK minimizedAffinity -0.654085755
REMARK minimizedRMSD -1
REMARK  0 active torsions:
REMARK  status: ('A' for Active; 'I' for Inactive)
ROOT
ATOM      1  C   UNL d   1      -3.311   2.861  -6.000  0.00  0.00     0.078 C 
ATOM      2  C1  UNL d   1      -2.097   3.741  -5.992  0.00  0.00    -0.077 A 
ATOM      3  C2  UNL d   1      -2.218   5.136  -5.993  0.00  0.00    -0.001 A 
ATOM      4  C3  UNL d   1      -1.079   5.943  -5.995  0.00  0.00     0.003 A 
ATOM      5  C4  UNL d   1       0.189   5.365  -5.998  0.00  0.00    -0.005 A 
ATOM      6  C5  UNL d   1       0.319   3.978  -6.000  0.00  0.00     0.003 A 
ATOM      7  C6  UNL d   1      -0.819   3.169  -5.997  0.00  0.00    -0.001 A 
ENDROOT
TORSDOF 0
ENDMDL
