MODEL 1
REMARK minimizedAffinity -1.51406991
REMARK minimizedRMSD -1
REMARK  0 active torsions:
REMARK  status: ('A' for Active; 'I' for Inactive)
ROOT
ATOM      1  C   UNL d   1       5.851   4.837  -5.962  0.00  0.00     0.078 C 
ATOM      2  C1  UNL d   1       4.353   4.765  -5.958  0.00  0.00    -0.077 A 
ATOM      3  C2  UNL d   1       3.690   3.532  -5.990  0.00  0.00    -0.001 A 
ATOM      4  C3  UNL d   1       2.295   3.481  -5.996  0.00  0.00     0.003 A 
ATOM      5  C4  UNL d   1       1.551   4.659  -5.970  0.00  0.00    -0.005 A 
ATOM      6  C5  UNL d   1       2.203   5.891  -5.940  0.00  0.00     0.003 A 
ATOM      7  C6  UNL d   1       3.597   5.944  -5.934  0.00  0.00    -0.001 A 
ENDROOT
TORSDOF 0
ENDMDL
