MODEL 1
REMARK minimizedAffinity -2.71259737
REMARK minimizedRMSD -1
REMARK  0 active torsions:
REMARK  status: ('A' for Active; 'I' for Inactive)
ROOT
ATOM      1  C   UNL d   1      -2.372   3.021  -5.993  0.00  0.00     0.078 C 
ATOM      2  C1  UNL d   1      -0.916   3.380  -5.988  0.00  0.00    -0.077 A 
ATOM      3  C2  UNL d   1      -0.503   4.718  -5.991  0.00  0.00    -0.001 A 
ATOM      4  C3  UNL d   1       0.855   5.037  -5.996  0.00  0.00     0.003 A 
ATOM      5  C4  UNL d   1       1.812   4.024  -6.000  0.00  0.00    -0.005 A 
ATOM      6  C5  UNL d   1       1.411   2.690  -5.999  0.00  0.00     0.003 A 
ATOM      7  C6  UNL d   1       0.052   2.368  -5.994  0.00  0.00    -0.001 A 
ENDROOT
TORSDOF 0
ENDMDL
