MODEL 1
REMARK minimizedAffinity -3.4361527
REMARK minimizedRMSD -1
REMARK  0 active torsions:
REMARK  status: ('A' for Active; 'I' for Inactive)
ROOT
ATOM      1  C   UNL d   1       1.632   2.626  -5.996  0.00  0.00     0.078 C 
ATOM      2  C1  UNL d   1       0.238   3.178  -5.987  0.00  0.00    -0.077 A 
ATOM      3  C2  UNL d   1      -0.875   2.328  -5.998  0.00  0.00    -0.001 A 
ATOM      4  C3  UNL d   1      -2.167   2.856  -6.000  0.00  0.00     0.003 A 
ATOM      5  C4  UNL d   1      -2.359   4.236  -5.992  0.00  0.00    -0.005 A 
ATOM      6  C5  UNL d   1      -1.258   5.090  -5.983  0.00  0.00     0.003 A 
ATOM      7  C6  UNL d   1       0.035   4.564  -5.982  0.00  0.00    -0.001 A 
ENDROOT
TORSDOF 0
ENDMDL
