MODEL 1
REMARK minimizedAffinity -2.65459633
REMARK minimizedRMSD -1
REMARK  0 active torsions:
REMARK  status: ('A' for Active; 'I' for Inactive)
ROOT
ATOM      1  C   UNL d   1       0.797   4.523  -5.890  0.00  0.00     0.078 C 
ATOM      2  C1  UNL d   1       2.292   4.628  -5.935  0.00  0.00    -0.077 A 
ATOM      3  C2  UNL d   1       3.096   3.482  -5.952  0.00  0.00    -0.001 A 
ATOM      4  C3  UNL d   1       4.486   3.595  -5.983  0.00  0.00     0.003 A 
ATOM      5  C4  UNL d   1       5.086   4.852  -5.997  0.00  0.00    -0.005 A 
ATOM      6  C5  UNL d   1       4.295   5.999  -5.979  0.00  0.00     0.003 A 
ATOM      7  C6  UNL d   1       2.904   5.888  -5.947  0.00  0.00    -0.001 A 
ENDROOT
TORSDOF 0
ENDMDL
