MODEL 1
REMARK minimizedAffinity -0.665308118
REMARK minimizedRMSD -1
REMARK  0 active torsions:
REMARK  status: ('A' for Active; 'I' for Inactive)
ROOT
ATOM      1  C   UNL d   1      -0.362   3.707  -5.984  0.00  0.00     0.078 C 
ATOM      2  C1  UNL d   1      -1.781   4.192  -5.997  0.00  0.00    -0.077 A 
ATOM      3  C2  UNL d   1      -2.075   5.562  -5.999  0.00  0.00    -0.001 A 
ATOM      4  C3  UNL d   1      -3.400   5.999  -6.000  0.00  0.00     0.003 A 
ATOM      5  C4  UNL d   1      -4.442   5.074  -5.998  0.00  0.00    -0.005 A 
ATOM      6  C5  UNL d   1      -4.160   3.709  -5.994  0.00  0.00     0.003 A 
ATOM      7  C6  UNL d   1      -2.835   3.270  -5.993  0.00  0.00    -0.001 A 
ENDROOT
TORSDOF 0
ENDMDL
