MODEL 1
REMARK minimizedAffinity 6.52917624
REMARK minimizedRMSD -1
REMARK  0 active torsions:
REMARK  status: ('A' for Active; 'I' for Inactive)
ROOT
ATOM      1  C   UNL d   1      -2.026  -3.156  -1.825  0.00  0.00     0.078 C 
ATOM      2  C1  UNL d   1      -0.648  -3.185  -2.414  0.00  0.00    -0.077 A 
ATOM      3  C2  UNL d   1       0.469  -2.815  -1.655  0.00  0.00    -0.001 A 
ATOM      4  C3  UNL d   1       1.745  -2.837  -2.220  0.00  0.00     0.003 A 
ATOM      5  C4  UNL d   1       1.917  -3.227  -3.546  0.00  0.00    -0.005 A 
ATOM      6  C5  UNL d   1       0.811  -3.595  -4.310  0.00  0.00     0.003 A 
ATOM      7  C6  UNL d   1      -0.466  -3.574  -3.748  0.00  0.00    -0.001 A 
ENDROOT
TORSDOF 0
ENDMDL
