MODEL 1
REMARK minimizedAffinity -1.45315087
REMARK minimizedRMSD -1
REMARK  0 active torsions:
REMARK  status: ('A' for Active; 'I' for Inactive)
ROOT
ATOM      1  C   UNL d   1       4.454   4.752  -5.981  0.00  0.00     0.078 C 
ATOM      2  C1  UNL d   1       2.975   4.505  -5.994  0.00  0.00    -0.077 A 
ATOM      3  C2  UNL d   1       2.066   5.569  -5.998  0.00  0.00    -0.001 A 
ATOM      4  C3  UNL d   1       0.692   5.323  -6.000  0.00  0.00     0.003 A 
ATOM      5  C4  UNL d   1       0.215   4.014  -5.998  0.00  0.00    -0.005 A 
ATOM      6  C5  UNL d   1       1.113   2.948  -5.992  0.00  0.00     0.003 A 
ATOM      7  C6  UNL d   1       2.487   3.192  -5.989  0.00  0.00    -0.001 A 
ENDROOT
TORSDOF 0
ENDMDL
