MODEL 1
REMARK minimizedAffinity -2.54906464
REMARK minimizedRMSD -1
REMARK  0 active torsions:
REMARK  status: ('A' for Active; 'I' for Inactive)
ROOT
ATOM      1  C   UNL d   1       1.050   3.819  -5.995  0.00  0.00     0.078 C 
ATOM      2  C1  UNL d   1      -0.427   4.081  -5.989  0.00  0.00    -0.077 A 
ATOM      3  C2  UNL d   1      -1.346   3.025  -5.995  0.00  0.00    -0.001 A 
ATOM      4  C3  UNL d   1      -2.718   3.284  -5.999  0.00  0.00     0.003 A 
ATOM      5  C4  UNL d   1      -3.182   4.598  -5.999  0.00  0.00    -0.005 A 
ATOM      6  C5  UNL d   1      -2.275   5.655  -5.996  0.00  0.00     0.003 A 
ATOM      7  C6  UNL d   1      -0.903   5.398  -5.992  0.00  0.00    -0.001 A 
ENDROOT
TORSDOF 0
ENDMDL
