MODEL 1
REMARK minimizedAffinity 0.548232377
REMARK minimizedRMSD -1
REMARK  0 active torsions:
REMARK  status: ('A' for Active; 'I' for Inactive)
ROOT
ATOM      1  C   UNL d   1      -2.387   5.965  -5.886  0.00  0.00     0.078 C 
ATOM      2  C1  UNL d   1      -1.129   5.151  -5.933  0.00  0.00    -0.077 A 
ATOM      3  C2  UNL d   1      -1.175   3.751  -5.933  0.00  0.00    -0.001 A 
ATOM      4  C3  UNL d   1       0.004   3.006  -5.966  0.00  0.00     0.003 A 
ATOM      5  C4  UNL d   1       1.239   3.651  -6.000  0.00  0.00    -0.005 A 
ATOM      6  C5  UNL d   1       1.295   5.043  -5.998  0.00  0.00     0.003 A 
ATOM      7  C6  UNL d   1       0.117   5.790  -5.964  0.00  0.00    -0.001 A 
ENDROOT
TORSDOF 0
ENDMDL
