MODEL 1
REMARK minimizedAffinity -2.58963704
REMARK minimizedRMSD -1
REMARK  0 active torsions:
REMARK  status: ('A' for Active; 'I' for Inactive)
ROOT
ATOM      1  C   UNL d   1       4.087   4.549  -5.994  0.00  0.00     0.078 C 
ATOM      2  C1  UNL d   1       2.732   3.906  -5.987  0.00  0.00    -0.077 A 
ATOM      3  C2  UNL d   1       2.595   2.513  -5.992  0.00  0.00    -0.001 A 
ATOM      4  C3  UNL d   1       1.327   1.929  -5.995  0.00  0.00     0.003 A 
ATOM      5  C4  UNL d   1       0.187   2.731  -5.996  0.00  0.00    -0.005 A 
ATOM      6  C5  UNL d   1       0.314   4.118  -5.994  0.00  0.00     0.003 A 
ATOM      7  C6  UNL d   1       1.581   4.704  -5.990  0.00  0.00    -0.001 A 
ENDROOT
TORSDOF 0
ENDMDL
