MODEL 1
REMARK minimizedAffinity -1.82653189
REMARK minimizedRMSD -1
REMARK  0 active torsions:
REMARK  status: ('A' for Active; 'I' for Inactive)
ROOT
ATOM      1  C2' OXE d   1      -2.627   0.011   0.894  0.00  0.00     0.078 C 
ATOM      2  C1' OXE d   1      -0.728   0.857  -0.993  0.00  0.00     0.078 C 
ATOM      3  C1  OXE d   1      -0.225   0.172   0.253  0.00  0.00    -0.078 A 
ATOM      4  C2  OXE d   1      -1.157  -0.197   1.193  0.00  0.00    -0.078 A 
ATOM      5  C3  OXE d   1      -0.752  -0.881   2.335  0.00  0.00     0.003 A 
ATOM      6  C4  OXE d   1       0.609  -1.060   2.608  0.00  0.00    -0.002 A 
ATOM      7  C5  OXE d   1       1.578  -0.656   1.683  0.00  0.00    -0.002 A 
ATOM      8  C6  OXE d   1       1.177  -0.079   0.484  0.00  0.00     0.003 A 
ENDROOT
TORSDOF 0
ENDMDL
