MODEL 1
REMARK minimizedAffinity -6.11096668
REMARK minimizedRMSD -1
REMARK  0 active torsions:
REMARK  status: ('A' for Active; 'I' for Inactive)
ROOT
ATOM      1  C2' OXE d   1      -0.061   0.037  -0.774  0.00  0.00     0.078 C 
ATOM      2  C1' OXE d   1      -0.910   0.065   1.902  0.00  0.00     0.078 C 
ATOM      3  C1  OXE d   1       0.291  -0.778   1.553  0.00  0.00    -0.078 A 
ATOM      4  C2  OXE d   1       0.671  -0.823   0.233  0.00  0.00    -0.078 A 
ATOM      5  C3  OXE d   1       1.805  -1.542  -0.133  0.00  0.00     0.003 A 
ATOM      6  C4  OXE d   1       2.471  -2.342   0.803  0.00  0.00    -0.002 A 
ATOM      7  C5  OXE d   1       2.076  -2.342   2.145  0.00  0.00    -0.002 A 
ATOM      8  C6  OXE d   1       1.017  -1.535   2.544  0.00  0.00     0.003 A 
ENDROOT
TORSDOF 0
ENDMDL
