MODEL 1
REMARK minimizedAffinity -1.86353302
REMARK minimizedRMSD -1
REMARK  0 active torsions:
REMARK  status: ('A' for Active; 'I' for Inactive)
ROOT
ATOM      1  C2' OXE d   1      -0.334   0.449  -1.585  0.00  0.00     0.078 C 
ATOM      2  C1' OXE d   1       1.919  -0.600  -0.281  0.00  0.00     0.078 C 
ATOM      3  C1  OXE d   1       0.640  -0.482   0.510  0.00  0.00    -0.078 A 
ATOM      4  C2  OXE d   1      -0.445   0.075  -0.122  0.00  0.00    -0.078 A 
ATOM      5  C3  OXE d   1      -1.664   0.157   0.544  0.00  0.00     0.003 A 
ATOM      6  C4  OXE d   1      -1.755  -0.181   1.900  0.00  0.00    -0.002 A 
ATOM      7  C5  OXE d   1      -0.651  -0.714   2.574  0.00  0.00    -0.002 A 
ATOM      8  C6  OXE d   1       0.540  -0.910   1.883  0.00  0.00     0.003 A 
ENDROOT
TORSDOF 0
ENDMDL
