MODEL 1
REMARK minimizedAffinity -2.98593092
REMARK minimizedRMSD -1
REMARK  0 active torsions:
REMARK  status: ('A' for Active; 'I' for Inactive)
ROOT
ATOM      1  C2' OXE d   1      -0.183   0.124  -1.569  0.00  0.00     0.078 C 
ATOM      2  C1' OXE d   1       1.911  -1.384  -0.464  0.00  0.00     0.078 C 
ATOM      3  C1  OXE d   1       0.705  -1.115   0.401  0.00  0.00    -0.078 A 
ATOM      4  C2  OXE d   1      -0.294  -0.337  -0.132  0.00  0.00    -0.078 A 
ATOM      5  C3  OXE d   1      -1.453  -0.104   0.604  0.00  0.00     0.003 A 
ATOM      6  C4  OXE d   1      -1.543  -0.525   1.936  0.00  0.00    -0.002 A 
ATOM      7  C5  OXE d   1      -0.520  -1.285   2.511  0.00  0.00    -0.002 A 
ATOM      8  C6  OXE d   1       0.590  -1.625   1.745  0.00  0.00     0.003 A 
ENDROOT
TORSDOF 0
ENDMDL
