MODEL 1
REMARK minimizedAffinity -1.45052946
REMARK minimizedRMSD -1
REMARK  0 active torsions:
REMARK  status: ('A' for Active; 'I' for Inactive)
ROOT
ATOM      1  C2' OXE d   1       0.397  -2.285   0.634  0.00  0.00     0.078 C 
ATOM      2  C1' OXE d   1      -1.131  -0.033  -0.055  0.00  0.00     0.078 C 
ATOM      3  C1  OXE d   1       0.345   0.165   0.187  0.00  0.00    -0.078 A 
ATOM      4  C2  OXE d   1       1.076  -0.934   0.569  0.00  0.00    -0.078 A 
ATOM      5  C3  OXE d   1       2.451  -0.817   0.752  0.00  0.00     0.003 A 
ATOM      6  C4  OXE d   1       3.069   0.438   0.701  0.00  0.00    -0.002 A 
ATOM      7  C5  OXE d   1       2.335   1.577   0.352  0.00  0.00    -0.002 A 
ATOM      8  C6  OXE d   1       0.984   1.451   0.051  0.00  0.00     0.003 A 
ENDROOT
TORSDOF 0
ENDMDL
