MODEL 1
REMARK minimizedAffinity -3.2729075
REMARK minimizedRMSD -1
REMARK  0 active torsions:
REMARK  status: ('A' for Active; 'I' for Inactive)
ROOT
ATOM      1  C2' OXE d   1      -1.632  -0.521  -0.075  0.00  0.00     0.078 C 
ATOM      2  C1' OXE d   1      -0.238  -2.111   1.772  0.00  0.00     0.078 C 
ATOM      3  C1  OXE d   1       0.376  -0.792   1.374  0.00  0.00    -0.078 A 
ATOM      4  C2  OXE d   1      -0.290  -0.042   0.435  0.00  0.00    -0.078 A 
ATOM      5  C3  OXE d   1       0.205   1.207   0.073  0.00  0.00     0.003 A 
ATOM      6  C4  OXE d   1       1.453   1.638   0.541  0.00  0.00    -0.002 A 
ATOM      7  C5  OXE d   1       2.167   0.871   1.468  0.00  0.00    -0.002 A 
ATOM      8  C6  OXE d   1       1.623  -0.324   1.926  0.00  0.00     0.003 A 
ENDROOT
TORSDOF 0
ENDMDL
