MODEL 1
REMARK minimizedAffinity -1.51869726
REMARK minimizedRMSD -1
REMARK  0 active torsions:
REMARK  status: ('A' for Active; 'I' for Inactive)
ROOT
ATOM      1  C2' OXE d   1       2.563  -0.711   2.873  0.00  0.00     0.078 C 
ATOM      2  C1' OXE d   1       2.567   2.091   3.049  0.00  0.00     0.078 C 
ATOM      3  C1  OXE d   1       1.757   1.456   1.947  0.00  0.00    -0.078 A 
ATOM      4  C2  OXE d   1       1.798   0.087   1.840  0.00  0.00    -0.078 A 
ATOM      5  C3  OXE d   1       1.025  -0.553   0.875  0.00  0.00     0.003 A 
ATOM      6  C4  OXE d   1       0.328   0.193  -0.084  0.00  0.00    -0.002 A 
ATOM      7  C5  OXE d   1       0.305   1.590  -0.017  0.00  0.00    -0.002 A 
ATOM      8  C6  OXE d   1       0.978   2.234   1.015  0.00  0.00     0.003 A 
ENDROOT
TORSDOF 0
ENDMDL
