MODEL 1
REMARK minimizedAffinity -5.17421246
REMARK minimizedRMSD -1
REMARK  0 active torsions:
REMARK  status: ('A' for Active; 'I' for Inactive)
ROOT
ATOM      1  C2' OXE d   1       0.796   1.684  -0.245  0.00  0.00     0.078 C 
ATOM      2  C1' OXE d   1      -1.318  -0.159  -0.371  0.00  0.00     0.078 C 
ATOM      3  C1  OXE d   1      -0.125  -0.513   0.482  0.00  0.00    -0.078 A 
ATOM      4  C2  OXE d   1       0.925   0.374   0.500  0.00  0.00    -0.078 A 
ATOM      5  C3  OXE d   1       2.026   0.121   1.314  0.00  0.00     0.003 A 
ATOM      6  C4  OXE d   1       2.141  -1.098   1.992  0.00  0.00    -0.002 A 
ATOM      7  C5  OXE d   1       1.101  -2.032   1.955  0.00  0.00    -0.002 A 
ATOM      8  C6  OXE d   1      -0.055  -1.737   1.240  0.00  0.00     0.003 A 
ENDROOT
TORSDOF 0
ENDMDL
