MODEL 1
REMARK minimizedAffinity -3.63176847
REMARK minimizedRMSD -1
REMARK  0 active torsions:
REMARK  status: ('A' for Active; 'I' for Inactive)
ROOT
ATOM      1  C2' OXE d   1      -1.310   0.391  -0.211  0.00  0.00     0.078 C 
ATOM      2  C1' OXE d   1       0.534  -1.542   0.651  0.00  0.00     0.078 C 
ATOM      3  C1  OXE d   1       1.026  -0.127   0.480  0.00  0.00    -0.078 A 
ATOM      4  C2  OXE d   1       0.129   0.803   0.013  0.00  0.00    -0.078 A 
ATOM      5  C3  OXE d   1       0.517   2.134  -0.111  0.00  0.00     0.003 A 
ATOM      6  C4  OXE d   1       1.852   2.504   0.089  0.00  0.00    -0.002 A 
ATOM      7  C5  OXE d   1       2.792   1.565   0.527  0.00  0.00    -0.002 A 
ATOM      8  C6  OXE d   1       2.386   0.257   0.768  0.00  0.00     0.003 A 
ENDROOT
TORSDOF 0
ENDMDL
