MODEL 1
REMARK minimizedAffinity -5.21123791
REMARK minimizedRMSD -1
REMARK  0 active torsions:
REMARK  status: ('A' for Active; 'I' for Inactive)
ROOT
ATOM      1  C2' OXE d   1       2.386   1.804   2.891  0.00  0.00     0.078 C 
ATOM      2  C1' OXE d   1       3.354  -0.606   1.823  0.00  0.00     0.078 C 
ATOM      3  C1  OXE d   1       2.140   0.013   1.176  0.00  0.00    -0.078 A 
ATOM      4  C2  OXE d   1       1.646   1.167   1.734  0.00  0.00    -0.078 A 
ATOM      5  C3  OXE d   1       0.561   1.809   1.143  0.00  0.00     0.003 A 
ATOM      6  C4  OXE d   1      -0.124   1.209   0.080  0.00  0.00    -0.002 A 
ATOM      7  C5  OXE d   1       0.339   0.013  -0.479  0.00  0.00    -0.002 A 
ATOM      8  C6  OXE d   1       1.493  -0.575   0.030  0.00  0.00     0.003 A 
ENDROOT
TORSDOF 0
ENDMDL
