MODEL 1
REMARK minimizedAffinity -3.98714519
REMARK minimizedRMSD -1
REMARK  0 active torsions:
REMARK  status: ('A' for Active; 'I' for Inactive)
ROOT
ATOM      1  C2' OXE d   1       3.023  -0.521   0.194  0.00  0.00     0.078 C 
ATOM      2  C1' OXE d   1       2.116   1.969   1.119  0.00  0.00     0.078 C 
ATOM      3  C1  OXE d   1       1.093   1.009   0.565  0.00  0.00    -0.078 A 
ATOM      4  C2  OXE d   1       1.552  -0.189   0.071  0.00  0.00    -0.078 A 
ATOM      5  C3  OXE d   1       0.644  -1.133  -0.401  0.00  0.00     0.003 A 
ATOM      6  C4  OXE d   1      -0.714  -0.813  -0.520  0.00  0.00    -0.002 A 
ATOM      7  C5  OXE d   1      -1.197   0.417  -0.060  0.00  0.00    -0.002 A 
ATOM      8  C6  OXE d   1      -0.315   1.320   0.523  0.00  0.00     0.003 A 
ENDROOT
TORSDOF 0
ENDMDL
