MODEL 1
REMARK minimizedAffinity -4.66975546
REMARK minimizedRMSD -1
REMARK  0 active torsions:
REMARK  status: ('A' for Active; 'I' for Inactive)
ROOT
ATOM      1  C2' OXE d   1      -0.238  -0.807   0.264  0.00  0.00     0.078 C 
ATOM      2  C1' OXE d   1       0.637  -2.957   1.842  0.00  0.00     0.078 C 
ATOM      3  C1  OXE d   1       1.596  -1.815   1.615  0.00  0.00    -0.078 A 
ATOM      4  C2  OXE d   1       1.176  -0.789   0.804  0.00  0.00    -0.078 A 
ATOM      5  C3  OXE d   1       2.000   0.315   0.606  0.00  0.00     0.003 A 
ATOM      6  C4  OXE d   1       3.310   0.319   1.101  0.00  0.00    -0.002 A 
ATOM      7  C5  OXE d   1       3.772  -0.734   1.897  0.00  0.00    -0.002 A 
ATOM      8  C6  OXE d   1       2.914  -1.787   2.198  0.00  0.00     0.003 A 
ENDROOT
TORSDOF 0
ENDMDL
