MODEL 1
REMARK minimizedAffinity 0.64727968
REMARK minimizedRMSD -1
REMARK  0 active torsions:
REMARK  status: ('A' for Active; 'I' for Inactive)
ROOT
ATOM      1  C2' OXE d   1       0.689   2.500   0.011  0.00  0.00     0.078 C 
ATOM      2  C1' OXE d   1       2.236   0.397   1.044  0.00  0.00     0.078 C 
ATOM      3  C1  OXE d   1       0.837   0.079   0.579  0.00  0.00    -0.078 A 
ATOM      4  C2  OXE d   1       0.071   1.122   0.118  0.00  0.00    -0.078 A 
ATOM      5  C3  OXE d   1      -1.207   0.875  -0.375  0.00  0.00     0.003 A 
ATOM      6  C4  OXE d   1      -1.775  -0.400  -0.263  0.00  0.00    -0.002 A 
ATOM      7  C5  OXE d   1      -1.026  -1.470   0.240  0.00  0.00    -0.002 A 
ATOM      8  C6  OXE d   1       0.293  -1.256   0.625  0.00  0.00     0.003 A 
ENDROOT
TORSDOF 0
ENDMDL
