MODEL 1
REMARK minimizedAffinity -2.31439042
REMARK minimizedRMSD -1
REMARK  0 active torsions:
REMARK  status: ('A' for Active; 'I' for Inactive)
ROOT
ATOM      1  C2' OXE d   1       0.616  -2.710   1.474  0.00  0.00     0.078 C 
ATOM      2  C1' OXE d   1       2.155  -0.524   0.618  0.00  0.00     0.078 C 
ATOM      3  C1  OXE d   1       0.657  -0.429   0.474  0.00  0.00    -0.078 A 
ATOM      4  C2  OXE d   1      -0.085  -1.521   0.852  0.00  0.00    -0.078 A 
ATOM      5  C3  OXE d   1      -1.475  -1.466   0.792  0.00  0.00     0.003 A 
ATOM      6  C4  OXE d   1      -2.115  -0.367   0.207  0.00  0.00    -0.002 A 
ATOM      7  C5  OXE d   1      -1.375   0.741  -0.221  0.00  0.00    -0.002 A 
ATOM      8  C6  OXE d   1       0.005   0.744  -0.056  0.00  0.00     0.003 A 
ENDROOT
TORSDOF 0
ENDMDL
