MODEL 1
REMARK minimizedAffinity -1.59598243
REMARK minimizedRMSD -1
REMARK  0 active torsions:
REMARK  status: ('A' for Active; 'I' for Inactive)
ROOT
ATOM      1  C2' OXE d   1       3.674  -0.490   0.196  0.00  0.00     0.078 C 
ATOM      2  C1' OXE d   1       2.617   1.977   1.018  0.00  0.00     0.078 C 
ATOM      3  C1  OXE d   1       1.655   0.834   0.809  0.00  0.00    -0.078 A 
ATOM      4  C2  OXE d   1       2.175  -0.356   0.362  0.00  0.00    -0.078 A 
ATOM      5  C3  OXE d   1       1.339  -1.458   0.205  0.00  0.00     0.003 A 
ATOM      6  C4  OXE d   1      -0.047  -1.323   0.351  0.00  0.00    -0.002 A 
ATOM      7  C5  OXE d   1      -0.601  -0.109   0.768  0.00  0.00    -0.002 A 
ATOM      8  C6  OXE d   1       0.238   0.966   1.042  0.00  0.00     0.003 A 
ENDROOT
TORSDOF 0
ENDMDL
