MODEL 1
REMARK minimizedAffinity -1.85675561
REMARK minimizedRMSD -1
REMARK  0 active torsions:
REMARK  status: ('A' for Active; 'I' for Inactive)
ROOT
ATOM      1  C   UNL d   1       1.585   3.008  -5.998  0.00  0.00    -0.002 A 
ATOM      2  C1  UNL d   1       1.799   4.379  -5.998  0.00  0.00     0.010 A 
ATOM      3  C2  UNL d   1       0.721   5.266  -5.999  0.00  0.00     0.041 A 
ATOM      4  C3  UNL d   1      -0.589   4.747  -5.997  0.00  0.00    -0.075 A 
ATOM      5  S   UNL d   1      -2.062   5.642  -5.996  0.00  0.00     0.015 SA
ATOM      6  C4  UNL d   1      -3.010   4.226  -5.995  0.00  0.00     0.022 A 
ATOM      7  C5  UNL d   1      -2.238   3.089  -5.996  0.00  0.00     0.026 A 
ATOM      8  C6  UNL d   1      -0.830   3.370  -5.996  0.00  0.00    -0.082 A 
ATOM      9  C7  UNL d   1       0.285   2.497  -5.997  0.00  0.00     0.045 A 
ENDROOT
TORSDOF 0
ENDMDL
