MODEL 1
REMARK minimizedAffinity -0.50025034
REMARK minimizedRMSD -1
REMARK  0 active torsions:
REMARK  status: ('A' for Active; 'I' for Inactive)
ROOT
ATOM      1  C   UNL d   1       1.618   3.119  -6.000  0.00  0.00    -0.002 A 
ATOM      2  C1  UNL d   1       1.701   4.504  -5.999  0.00  0.00     0.010 A 
ATOM      3  C2  UNL d   1       0.544   5.285  -6.000  0.00  0.00     0.041 A 
ATOM      4  C3  UNL d   1      -0.711   4.644  -5.999  0.00  0.00    -0.075 A 
ATOM      5  S   UNL d   1      -2.262   5.396  -5.999  0.00  0.00     0.015 SA
ATOM      6  C4  UNL d   1      -3.072   3.896  -5.998  0.00  0.00     0.022 A 
ATOM      7  C5  UNL d   1      -2.195   2.837  -5.999  0.00  0.00     0.026 A 
ATOM      8  C6  UNL d   1      -0.820   3.250  -5.999  0.00  0.00    -0.082 A 
ATOM      9  C7  UNL d   1       0.372   2.487  -5.999  0.00  0.00     0.045 A 
ENDROOT
TORSDOF 0
ENDMDL
