MODEL 1
REMARK minimizedAffinity 0.261170268
REMARK minimizedRMSD -1
REMARK  0 active torsions:
REMARK  status: ('A' for Active; 'I' for Inactive)
ROOT
ATOM      1  C   UNL d   1       1.550   3.584  -5.996  0.00  0.00    -0.002 A 
ATOM      2  C1  UNL d   1       1.499   4.971  -5.996  0.00  0.00     0.010 A 
ATOM      3  C2  UNL d   1       0.271   5.636  -5.998  0.00  0.00     0.041 A 
ATOM      4  C3  UNL d   1      -0.916   4.877  -5.998  0.00  0.00    -0.075 A 
ATOM      5  S   UNL d   1      -2.533   5.475  -6.000  0.00  0.00     0.015 SA
ATOM      6  C4  UNL d   1      -3.193   3.904  -5.999  0.00  0.00     0.022 A 
ATOM      7  C5  UNL d   1      -2.218   2.935  -5.998  0.00  0.00     0.026 A 
ATOM      8  C6  UNL d   1      -0.889   3.479  -5.997  0.00  0.00    -0.082 A 
ATOM      9  C7  UNL d   1       0.371   2.834  -5.996  0.00  0.00     0.045 A 
ENDROOT
TORSDOF 0
ENDMDL
