MODEL 1
REMARK minimizedAffinity -1.39158964
REMARK minimizedRMSD -1
REMARK  0 active torsions:
REMARK  status: ('A' for Active; 'I' for Inactive)
ROOT
ATOM      1  C   UNL d   1      -4.341   5.213  -5.995  0.00  0.00    -0.002 A 
ATOM      2  C1  UNL d   1      -4.288   3.826  -5.994  0.00  0.00     0.010 A 
ATOM      3  C2  UNL d   1      -3.059   3.163  -5.996  0.00  0.00     0.041 A 
ATOM      4  C3  UNL d   1      -1.873   3.924  -5.997  0.00  0.00    -0.075 A 
ATOM      5  S   UNL d   1      -0.256   3.328  -5.999  0.00  0.00     0.015 SA
ATOM      6  C4  UNL d   1       0.403   4.900  -6.000  0.00  0.00     0.022 A 
ATOM      7  C5  UNL d   1      -0.574   5.868  -5.999  0.00  0.00     0.026 A 
ATOM      8  C6  UNL d   1      -1.902   5.321  -5.997  0.00  0.00    -0.082 A 
ATOM      9  C7  UNL d   1      -3.163   5.964  -5.996  0.00  0.00     0.045 A 
ENDROOT
TORSDOF 0
ENDMDL
