MODEL 1
REMARK minimizedAffinity 0.510612726
REMARK minimizedRMSD -1
REMARK  0 active torsions:
REMARK  status: ('A' for Active; 'I' for Inactive)
ROOT
ATOM      1  C   UNL d   1      -3.257   5.097  -5.997  0.00  0.00    -0.002 A 
ATOM      2  C1  UNL d   1      -3.383   3.715  -5.997  0.00  0.00     0.010 A 
ATOM      3  C2  UNL d   1      -2.250   2.898  -5.999  0.00  0.00     0.041 A 
ATOM      4  C3  UNL d   1      -0.977   3.500  -5.999  0.00  0.00    -0.075 A 
ATOM      5  S   UNL d   1       0.551   2.701  -6.000  0.00  0.00     0.015 SA
ATOM      6  C4  UNL d   1       1.406   4.175  -6.000  0.00  0.00     0.022 A 
ATOM      7  C5  UNL d   1       0.563   5.260  -5.999  0.00  0.00     0.026 A 
ATOM      8  C6  UNL d   1      -0.824   4.890  -5.998  0.00  0.00    -0.082 A 
ATOM      9  C7  UNL d   1      -1.992   5.690  -5.997  0.00  0.00     0.045 A 
ENDROOT
TORSDOF 0
ENDMDL
