MODEL 1
REMARK minimizedAffinity -1.01376987
REMARK minimizedRMSD -1
REMARK  0 active torsions:
REMARK  status: ('A' for Active; 'I' for Inactive)
ROOT
ATOM      1  C   UNL d   1      -2.767   4.906  -5.994  0.00  0.00    -0.002 A 
ATOM      2  C1  UNL d   1      -2.929   3.528  -5.994  0.00  0.00     0.010 A 
ATOM      3  C2  UNL d   1      -1.817   2.682  -5.997  0.00  0.00     0.041 A 
ATOM      4  C3  UNL d   1      -0.528   3.251  -5.997  0.00  0.00    -0.075 A 
ATOM      5  S   UNL d   1       0.978   2.412  -6.000  0.00  0.00     0.015 SA
ATOM      6  C4  UNL d   1       1.871   3.863  -6.000  0.00  0.00     0.022 A 
ATOM      7  C5  UNL d   1       1.056   4.971  -5.999  0.00  0.00     0.026 A 
ATOM      8  C6  UNL d   1      -0.340   4.636  -5.997  0.00  0.00    -0.082 A 
ATOM      9  C7  UNL d   1      -1.487   5.466  -5.995  0.00  0.00     0.045 A 
ENDROOT
TORSDOF 0
ENDMDL
