MODEL 1
REMARK minimizedAffinity 18.6042347
REMARK minimizedRMSD -1
REMARK  0 active torsions:
REMARK  status: ('A' for Active; 'I' for Inactive)
ROOT
ATOM      1  C   UNL d   1       1.902  -0.894   3.442  0.00  0.00    -0.002 A 
ATOM      2  C1  UNL d   1       0.834  -1.768   3.295  0.00  0.00     0.010 A 
ATOM      3  C2  UNL d   1      -0.427  -1.294   2.928  0.00  0.00     0.041 A 
ATOM      4  C3  UNL d   1      -0.598   0.087   2.707  0.00  0.00    -0.075 A 
ATOM      5  S   UNL d   1      -2.050   0.894   2.249  0.00  0.00     0.015 SA
ATOM      6  C4  UNL d   1      -1.288   2.418   2.236  0.00  0.00     0.022 A 
ATOM      7  C5  UNL d   1       0.043   2.332   2.570  0.00  0.00     0.026 A 
ATOM      8  C6  UNL d   1       0.463   0.987   2.847  0.00  0.00    -0.082 A 
ATOM      9  C7  UNL d   1       1.729   0.475   3.221  0.00  0.00     0.045 A 
ENDROOT
TORSDOF 0
ENDMDL
