MODEL 1
REMARK minimizedAffinity 9.33560658
REMARK minimizedRMSD -1
REMARK  0 active torsions:
REMARK  status: ('A' for Active; 'I' for Inactive)
ROOT
ATOM      1  C   UNL d   1      -0.349  -1.127   3.019  0.00  0.00    -0.002 A 
ATOM      2  C1  UNL d   1       0.072   0.175   2.792  0.00  0.00     0.010 A 
ATOM      3  C2  UNL d   1       1.190   0.686   3.455  0.00  0.00     0.041 A 
ATOM      4  C3  UNL d   1       1.885  -0.143   4.358  0.00  0.00    -0.075 A 
ATOM      5  S   UNL d   1       3.281   0.267   5.282  0.00  0.00     0.015 SA
ATOM      6  C4  UNL d   1       3.351  -1.277   6.000  0.00  0.00     0.022 A 
ATOM      7  C5  UNL d   1       2.342  -2.098   5.556  0.00  0.00     0.026 A 
ATOM      8  C6  UNL d   1       1.480  -1.458   4.602  0.00  0.00    -0.082 A 
ATOM      9  C7  UNL d   1       0.343  -1.947   3.915  0.00  0.00     0.045 A 
ENDROOT
TORSDOF 0
ENDMDL
