MODEL 1
REMARK minimizedAffinity 17.3855591
REMARK minimizedRMSD -1
REMARK  0 active torsions:
REMARK  status: ('A' for Active; 'I' for Inactive)
ROOT
ATOM      1  C   UNL d   1      -2.314  -1.897  -2.118  0.00  0.00    -0.002 A 
ATOM      2  C1  UNL d   1      -1.229  -1.791  -1.259  0.00  0.00     0.010 A 
ATOM      3  C2  UNL d   1       0.042  -1.493  -1.753  0.00  0.00     0.041 A 
ATOM      4  C3  UNL d   1       0.207  -1.300  -3.139  0.00  0.00    -0.075 A 
ATOM      5  S   UNL d   1       1.670  -0.926  -3.970  0.00  0.00     0.015 SA
ATOM      6  C4  UNL d   1       0.890  -0.897  -5.485  0.00  0.00     0.022 A 
ATOM      7  C5  UNL d   1      -0.454  -1.165  -5.378  0.00  0.00     0.026 A 
ATOM      8  C6  UNL d   1      -0.870  -1.401  -4.024  0.00  0.00    -0.082 A 
ATOM      9  C7  UNL d   1      -2.147  -1.705  -3.492  0.00  0.00     0.045 A 
ENDROOT
TORSDOF 0
ENDMDL
