MODEL 1
REMARK minimizedAffinity 1.45762944
REMARK minimizedRMSD -1
REMARK  0 active torsions:
REMARK  status: ('A' for Active; 'I' for Inactive)
ROOT
ATOM      1  C   UNL d   1      -2.795  -1.016   3.409  0.00  0.00     0.077 C 
ATOM      2  C1  UNL d   1      -1.913  -0.231   2.484  0.00  0.00    -0.074 A 
ATOM      3  C2  UNL d   1      -1.009   0.713   2.981  0.00  0.00    -0.005 A 
ATOM      4  C3  UNL d   1      -0.189   1.429   2.109  0.00  0.00     0.006 A 
ATOM      5  C4  UNL d   1      -0.264   1.208   0.734  0.00  0.00    -0.005 A 
ATOM      6  C5  UNL d   1      -1.161   0.268   0.218  0.00  0.00    -0.074 A 
ATOM      7  C6  UNL d   1      -1.247   0.011  -1.257  0.00  0.00     0.077 C 
ATOM      8  C7  UNL d   1      -1.977  -0.453   1.101  0.00  0.00    -0.001 A 
ENDROOT
TORSDOF 0
ENDMDL
