MODEL 1
REMARK minimizedAffinity -3.8205657
REMARK minimizedRMSD -1
REMARK  0 active torsions:
REMARK  status: ('A' for Active; 'I' for Inactive)
ROOT
ATOM      1  C   UNL d   1      -0.666   1.171   3.768  0.00  0.00     0.077 C 
ATOM      2  C1  UNL d   1      -0.286   0.521   2.471  0.00  0.00    -0.074 A 
ATOM      3  C2  UNL d   1       1.032   0.122   2.226  0.00  0.00    -0.005 A 
ATOM      4  C3  UNL d   1       1.369  -0.490   1.019  0.00  0.00     0.006 A 
ATOM      5  C4  UNL d   1       0.393  -0.708   0.045  0.00  0.00    -0.005 A 
ATOM      6  C5  UNL d   1      -0.930  -0.316   0.273  0.00  0.00    -0.074 A 
ATOM      7  C6  UNL d   1      -1.993  -0.552  -0.759  0.00  0.00     0.077 C 
ATOM      8  C7  UNL d   1      -1.262   0.292   1.491  0.00  0.00    -0.001 A 
ENDROOT
TORSDOF 0
ENDMDL
