MODEL 1
REMARK minimizedAffinity 1.10292709
REMARK minimizedRMSD -1
REMARK  0 active torsions:
REMARK  status: ('A' for Active; 'I' for Inactive)
ROOT
ATOM      1  C   UNL d   1       2.413  -0.400   0.741  0.00  0.00     0.077 C 
ATOM      2  C1  UNL d   1       0.929  -0.384   0.525  0.00  0.00    -0.074 A 
ATOM      3  C2  UNL d   1       0.375  -0.795  -0.691  0.00  0.00    -0.005 A 
ATOM      4  C3  UNL d   1      -1.008  -0.784  -0.873  0.00  0.00     0.006 A 
ATOM      5  C4  UNL d   1      -1.849  -0.361   0.157  0.00  0.00    -0.005 A 
ATOM      6  C5  UNL d   1      -1.313   0.053   1.381  0.00  0.00    -0.074 A 
ATOM      7  C6  UNL d   1      -2.203   0.501   2.502  0.00  0.00     0.077 C 
ATOM      8  C7  UNL d   1       0.077   0.032   1.558  0.00  0.00    -0.001 A 
ENDROOT
TORSDOF 0
ENDMDL
