MODEL 1
REMARK minimizedAffinity -5.80470896
REMARK minimizedRMSD -1
REMARK  0 active torsions:
REMARK  status: ('A' for Active; 'I' for Inactive)
ROOT
ATOM      1  C   UNL d   1      -0.958   1.345   2.871  0.00  0.00     0.077 C 
ATOM      2  C1  UNL d   1       0.044   0.663   1.986  0.00  0.00    -0.074 A 
ATOM      3  C2  UNL d   1       1.279   0.242   2.490  0.00  0.00    -0.005 A 
ATOM      4  C3  UNL d   1       2.196  -0.399   1.657  0.00  0.00     0.006 A 
ATOM      5  C4  UNL d   1       1.888  -0.625   0.315  0.00  0.00    -0.005 A 
ATOM      6  C5  UNL d   1       0.658  -0.212  -0.206  0.00  0.00    -0.074 A 
ATOM      7  C6  UNL d   1       0.308  -0.456  -1.644  0.00  0.00     0.077 C 
ATOM      8  C7  UNL d   1      -0.261   0.426   0.638  0.00  0.00    -0.001 A 
ENDROOT
TORSDOF 0
ENDMDL
