MODEL 1
REMARK minimizedAffinity -5.72442579
REMARK minimizedRMSD -1
REMARK  0 active torsions:
REMARK  status: ('A' for Active; 'I' for Inactive)
ROOT
ATOM      1  C   UNL d   1      -0.629   1.021   3.006  0.00  0.00     0.077 C 
ATOM      2  C1  UNL d   1       0.416   0.548   2.039  0.00  0.00    -0.074 A 
ATOM      3  C2  UNL d   1       1.752   0.421   2.431  0.00  0.00    -0.005 A 
ATOM      4  C3  UNL d   1       2.711  -0.029   1.524  0.00  0.00     0.006 A 
ATOM      5  C4  UNL d   1       2.344  -0.356   0.218  0.00  0.00    -0.005 A 
ATOM      6  C5  UNL d   1       1.012  -0.236  -0.192  0.00  0.00    -0.074 A 
ATOM      7  C6  UNL d   1       0.599  -0.592  -1.589  0.00  0.00     0.077 C 
ATOM      8  C7  UNL d   1       0.053   0.211   0.728  0.00  0.00    -0.001 A 
ENDROOT
TORSDOF 0
ENDMDL
