MODEL 1
REMARK minimizedAffinity -4.00802422
REMARK minimizedRMSD -1
REMARK  0 active torsions:
REMARK  status: ('A' for Active; 'I' for Inactive)
ROOT
ATOM      1  C   UNL d   1       0.138  -0.794  -2.709  0.00  0.00     0.077 C 
ATOM      2  C1  UNL d   1       0.331  -0.637  -1.230  0.00  0.00    -0.074 A 
ATOM      3  C2  UNL d   1       1.564  -0.915  -0.632  0.00  0.00    -0.005 A 
ATOM      4  C3  UNL d   1       1.731  -0.755   0.744  0.00  0.00     0.006 A 
ATOM      5  C4  UNL d   1       0.668  -0.316   1.534  0.00  0.00    -0.005 A 
ATOM      6  C5  UNL d   1      -0.572  -0.032   0.954  0.00  0.00    -0.074 A 
ATOM      7  C6  UNL d   1      -1.722   0.450   1.787  0.00  0.00     0.077 C 
ATOM      8  C7  UNL d   1      -0.730  -0.188  -0.430  0.00  0.00    -0.001 A 
ENDROOT
TORSDOF 0
ENDMDL
