MODEL 1
REMARK minimizedAffinity 0.85438633
REMARK minimizedRMSD -1
REMARK  0 active torsions:
REMARK  status: ('A' for Active; 'I' for Inactive)
ROOT
ATOM      1  C   UNL d   1       2.216  -0.051   0.290  0.00  0.00     0.077 C 
ATOM      2  C1  UNL d   1       0.865  -0.011   0.941  0.00  0.00    -0.074 A 
ATOM      3  C2  UNL d   1      -0.284  -0.382   0.235  0.00  0.00    -0.005 A 
ATOM      4  C3  UNL d   1      -1.532  -0.349   0.856  0.00  0.00     0.006 A 
ATOM      5  C4  UNL d   1      -1.644   0.055   2.187  0.00  0.00    -0.005 A 
ATOM      6  C5  UNL d   1      -0.507   0.429   2.909  0.00  0.00    -0.074 A 
ATOM      7  C6  UNL d   1      -0.608   0.857   4.343  0.00  0.00     0.077 C 
ATOM      8  C7  UNL d   1       0.745   0.387   2.280  0.00  0.00    -0.001 A 
ENDROOT
TORSDOF 0
ENDMDL
