MODEL 1
REMARK minimizedAffinity 2.6419313
REMARK minimizedRMSD -1
REMARK  0 active torsions:
REMARK  status: ('A' for Active; 'I' for Inactive)
ROOT
ATOM      1  C   UNL d   1       1.259  -1.194   4.130  0.00  0.00     0.077 C 
ATOM      2  C1  UNL d   1       0.119  -0.692   3.295  0.00  0.00    -0.074 A 
ATOM      3  C2  UNL d   1      -1.146  -0.487   3.854  0.00  0.00    -0.005 A 
ATOM      4  C3  UNL d   1      -2.195  -0.011   3.067  0.00  0.00     0.006 A 
ATOM      5  C4  UNL d   1      -1.989   0.265   1.715  0.00  0.00    -0.005 A 
ATOM      6  C5  UNL d   1      -0.730   0.067   1.138  0.00  0.00    -0.074 A 
ATOM      7  C6  UNL d   1      -0.490   0.368  -0.312  0.00  0.00     0.077 C 
ATOM      8  C7  UNL d   1       0.320  -0.405   1.937  0.00  0.00    -0.001 A 
ENDROOT
TORSDOF 0
ENDMDL
