MODEL 1
REMARK minimizedAffinity -5.24796581
REMARK minimizedRMSD -1
REMARK  0 active torsions:
REMARK  status: ('A' for Active; 'I' for Inactive)
ROOT
ATOM      1  C   UNL d   1      -1.734   0.801   1.088  0.00  0.00     0.077 C 
ATOM      2  C1  UNL d   1      -0.537   0.342   0.310  0.00  0.00    -0.074 A 
ATOM      3  C2  UNL d   1       0.575  -0.206   0.958  0.00  0.00    -0.005 A 
ATOM      4  C3  UNL d   1       1.678  -0.637   0.221  0.00  0.00     0.006 A 
ATOM      5  C4  UNL d   1       1.680  -0.525  -1.170  0.00  0.00    -0.005 A 
ATOM      6  C5  UNL d   1       0.577   0.020  -1.836  0.00  0.00    -0.074 A 
ATOM      7  C6  UNL d   1       0.559   0.138  -3.331  0.00  0.00     0.077 C 
ATOM      8  C7  UNL d   1      -0.530   0.444  -1.088  0.00  0.00    -0.001 A 
ENDROOT
TORSDOF 0
ENDMDL
