MODEL 1
REMARK minimizedAffinity -2.37118554
REMARK minimizedRMSD -1
REMARK  0 active torsions:
REMARK  status: ('A' for Active; 'I' for Inactive)
ROOT
ATOM      1  C4' PXY d   1      -0.721   3.132   1.474  0.00  0.00     0.077 C 
ATOM      2  C1' PXY d   1       0.484  -2.088  -0.696  0.00  0.00     0.077 C 
ATOM      3  C1  PXY d   1       0.171  -0.723  -0.115  0.00  0.00    -0.082 A 
ATOM      4  C2  PXY d   1      -0.626   0.101  -0.775  0.00  0.00     0.003 A 
ATOM      5  C3  PXY d   1      -0.894   1.351  -0.279  0.00  0.00     0.003 A 
ATOM      6  C4  PXY d   1      -0.385   1.741   0.930  0.00  0.00    -0.082 A 
ATOM      7  C5  PXY d   1       0.421   0.901   1.615  0.00  0.00     0.003 A 
ATOM      8  C6  PXY d   1       0.714  -0.348   1.075  0.00  0.00     0.003 A 
ENDROOT
TORSDOF 0
ENDMDL
