MODEL 1
REMARK minimizedAffinity -4.47966909
REMARK minimizedRMSD -1
REMARK  0 active torsions:
REMARK  status: ('A' for Active; 'I' for Inactive)
ROOT
ATOM      1  C4' PXY d   1      -0.088  -1.940  -1.249  0.00  0.00     0.077 C 
ATOM      2  C1' PXY d   1      -1.156   2.798   1.887  0.00  0.00     0.077 C 
ATOM      3  C1  PXY d   1      -0.881   1.561   1.054  0.00  0.00    -0.082 A 
ATOM      4  C2  PXY d   1      -0.805   0.379   1.643  0.00  0.00     0.003 A 
ATOM      5  C3  PXY d   1      -0.525  -0.745   0.910  0.00  0.00     0.003 A 
ATOM      6  C4  PXY d   1      -0.374  -0.666  -0.449  0.00  0.00    -0.082 A 
ATOM      7  C5  PXY d   1      -0.461   0.535  -1.059  0.00  0.00     0.003 A 
ATOM      8  C6  PXY d   1      -0.705   1.670  -0.291  0.00  0.00     0.003 A 
ENDROOT
TORSDOF 0
ENDMDL
