MODEL 1
REMARK minimizedAffinity -3.03307581
REMARK minimizedRMSD -1
REMARK  0 active torsions:
REMARK  status: ('A' for Active; 'I' for Inactive)
ROOT
ATOM      1  C4' PXY d   1       1.425  -1.033  -1.941  0.00  0.00     0.077 C 
ATOM      2  C1' PXY d   1      -0.389   2.556   2.212  0.00  0.00     0.077 C 
ATOM      3  C1  PXY d   1       0.076   1.619   1.115  0.00  0.00    -0.082 A 
ATOM      4  C2  PXY d   1       0.833   0.578   1.423  0.00  0.00     0.003 A 
ATOM      5  C3  PXY d   1       1.290  -0.262   0.439  0.00  0.00     0.003 A 
ATOM      6  C4  PXY d   1       0.924  -0.065  -0.865  0.00  0.00    -0.082 A 
ATOM      7  C5  PXY d   1       0.143   0.988  -1.185  0.00  0.00     0.003 A 
ATOM      8  C6  PXY d   1      -0.276   1.853  -0.178  0.00  0.00     0.003 A 
ENDROOT
TORSDOF 0
ENDMDL
