MODEL 1
REMARK minimizedAffinity -5.38644457
REMARK minimizedRMSD -1
REMARK  0 active torsions:
REMARK  status: ('A' for Active; 'I' for Inactive)
ROOT
ATOM      1  C4' PXY d   1       0.559  -2.181  -0.996  0.00  0.00     0.077 C 
ATOM      2  C1' PXY d   1      -1.103   2.556   1.870  0.00  0.00     0.077 C 
ATOM      3  C1  PXY d   1      -0.658   1.312   1.127  0.00  0.00    -0.082 A 
ATOM      4  C2  PXY d   1      -0.962   1.170  -0.153  0.00  0.00     0.003 A 
ATOM      5  C3  PXY d   1      -0.594   0.037  -0.832  0.00  0.00     0.003 A 
ATOM      6  C4  PXY d   1       0.138  -0.938  -0.208  0.00  0.00    -0.082 A 
ATOM      7  C5  PXY d   1       0.461  -0.796   1.094  0.00  0.00     0.003 A 
ATOM      8  C6  PXY d   1       0.043   0.343   1.777  0.00  0.00     0.003 A 
ENDROOT
TORSDOF 0
ENDMDL
