MODEL 1
REMARK minimizedAffinity -3.99027348
REMARK minimizedRMSD -1
REMARK  0 active torsions:
REMARK  status: ('A' for Active; 'I' for Inactive)
ROOT
ATOM      1  C4' PXY d   1      -0.448   1.725   1.947  0.00  0.00     0.077 C 
ATOM      2  C1' PXY d   1       0.840  -2.476  -1.809  0.00  0.00     0.077 C 
ATOM      3  C1  PXY d   1       0.512  -1.379  -0.816  0.00  0.00    -0.082 A 
ATOM      4  C2  PXY d   1      -0.688  -0.821  -0.831  0.00  0.00     0.003 A 
ATOM      5  C3  PXY d   1      -0.992   0.194   0.039  0.00  0.00     0.003 A 
ATOM      6  C4  PXY d   1      -0.075   0.607   0.969  0.00  0.00    -0.082 A 
ATOM      7  C5  PXY d   1       1.147   0.036   0.997  0.00  0.00     0.003 A 
ATOM      8  C6  PXY d   1       1.450  -0.965   0.079  0.00  0.00     0.003 A 
ENDROOT
TORSDOF 0
ENDMDL
