MODEL 1
REMARK minimizedAffinity -3.85449409
REMARK minimizedRMSD -1
REMARK  0 active torsions:
REMARK  status: ('A' for Active; 'I' for Inactive)
ROOT
ATOM      1  C4' PXY d   1       0.412  -1.851  -1.178  0.00  0.00     0.077 C 
ATOM      2  C1' PXY d   1      -1.171   2.667   2.062  0.00  0.00     0.077 C 
ATOM      3  C1  PXY d   1      -0.744   1.482   1.219  0.00  0.00    -0.082 A 
ATOM      4  C2  PXY d   1      -1.271   1.310   0.017  0.00  0.00     0.003 A 
ATOM      5  C3  PXY d   1      -0.921   0.226  -0.746  0.00  0.00     0.003 A 
ATOM      6  C4  PXY d   1       0.018  -0.663  -0.296  0.00  0.00    -0.082 A 
ATOM      7  C5  PXY d   1       0.568  -0.489   0.925  0.00  0.00     0.003 A 
ATOM      8  C6  PXY d   1       0.169   0.595   1.700  0.00  0.00     0.003 A 
ENDROOT
TORSDOF 0
ENDMDL
