MODEL 1
REMARK minimizedAffinity -5.22456121
REMARK minimizedRMSD -1
REMARK  0 active torsions:
REMARK  status: ('A' for Active; 'I' for Inactive)
ROOT
ATOM      1  C4' PXY d   1       1.108  -1.507  -1.132  0.00  0.00     0.077 C 
ATOM      2  C1' PXY d   1      -1.600   2.548   1.972  0.00  0.00     0.077 C 
ATOM      3  C1  PXY d   1      -0.880   1.485   1.167  0.00  0.00    -0.082 A 
ATOM      4  C2  PXY d   1      -1.128   1.364  -0.127  0.00  0.00     0.003 A 
ATOM      5  C3  PXY d   1      -0.510   0.387  -0.864  0.00  0.00     0.003 A 
ATOM      6  C4  PXY d   1       0.412  -0.441  -0.281  0.00  0.00    -0.082 A 
ATOM      7  C5  PXY d   1       0.679  -0.317   1.036  0.00  0.00     0.003 A 
ATOM      8  C6  PXY d   1       0.010   0.654   1.775  0.00  0.00     0.003 A 
ENDROOT
TORSDOF 0
ENDMDL
