MODEL 1
REMARK minimizedAffinity -0.189170882
REMARK minimizedRMSD -1
REMARK  0 active torsions:
REMARK  status: ('A' for Active; 'I' for Inactive)
ROOT
ATOM      1  C4' PXY d   1       0.028  -0.496   3.066  0.00  0.00     0.077 C 
ATOM      2  C1' PXY d   1      -0.301   1.063  -2.490  0.00  0.00     0.077 C 
ATOM      3  C1  PXY d   1      -0.223   0.664  -1.030  0.00  0.00    -0.082 A 
ATOM      4  C2  PXY d   1       0.851   0.036  -0.580  0.00  0.00     0.003 A 
ATOM      5  C3  PXY d   1       0.924  -0.361   0.731  0.00  0.00     0.003 A 
ATOM      6  C4  PXY d   1      -0.090  -0.065   1.602  0.00  0.00    -0.082 A 
ATOM      7  C5  PXY d   1      -1.184   0.584   1.153  0.00  0.00     0.003 A 
ATOM      8  C6  PXY d   1      -1.257   0.942  -0.190  0.00  0.00     0.003 A 
ENDROOT
TORSDOF 0
ENDMDL
