MODEL 1
REMARK minimizedAffinity -4.14734411
REMARK minimizedRMSD -1
REMARK  0 active torsions:
REMARK  status: ('A' for Active; 'I' for Inactive)
ROOT
ATOM      1  C4' PXY d   1      -1.403   2.865   1.752  0.00  0.00     0.077 C 
ATOM      2  C1' PXY d   1       1.078  -1.353  -1.326  0.00  0.00     0.077 C 
ATOM      3  C1  PXY d   1       0.431  -0.238  -0.528  0.00  0.00    -0.082 A 
ATOM      4  C2  PXY d   1       0.279  -0.372   0.779  0.00  0.00     0.003 A 
ATOM      5  C3  PXY d   1      -0.333   0.612   1.511  0.00  0.00     0.003 A 
ATOM      6  C4  PXY d   1      -0.747   1.769   0.907  0.00  0.00    -0.082 A 
ATOM      7  C5  PXY d   1      -0.586   1.918  -0.425  0.00  0.00     0.003 A 
ATOM      8  C6  PXY d   1       0.001   0.890  -1.156  0.00  0.00     0.003 A 
ENDROOT
TORSDOF 0
ENDMDL
