MODEL 1
REMARK minimizedAffinity -1.44794393
REMARK minimizedRMSD -1
REMARK  0 active torsions:
REMARK  status: ('A' for Active; 'I' for Inactive)
ROOT
ATOM      1  C4' PXY d   1       1.166  -1.178  -0.694  0.00  0.00     0.077 C 
ATOM      2  C1' PXY d   1      -1.618   3.461   1.342  0.00  0.00     0.077 C 
ATOM      3  C1  PXY d   1      -0.897   2.243   0.798  0.00  0.00    -0.082 A 
ATOM      4  C2  PXY d   1      -0.116   1.535   1.598  0.00  0.00     0.003 A 
ATOM      5  C3  PXY d   1       0.569   0.449   1.115  0.00  0.00     0.003 A 
ATOM      6  C4  PXY d   1       0.411   0.053  -0.187  0.00  0.00    -0.082 A 
ATOM      7  C5  PXY d   1      -0.393   0.765  -1.005  0.00  0.00     0.003 A 
ATOM      8  C6  PXY d   1      -1.047   1.888  -0.506  0.00  0.00     0.003 A 
ENDROOT
TORSDOF 0
ENDMDL
