MODEL 1
REMARK minimizedAffinity -2.84679604
REMARK minimizedRMSD -1
REMARK  1 active torsions:
REMARK  status: ('A' for Active; 'I' for Inactive)
REMARK    1  A    between atoms: C1_2  and  C2_3 
ROOT
ATOM      1  C2  UNL d   1      -0.795   1.292   0.447  0.00  0.00    -0.077 A 
ATOM      2  C3  UNL d   1      -0.480  -0.070   0.549  0.00  0.00     0.002 A 
ATOM      3  C4  UNL d   1       0.341  -0.678  -0.404  0.00  0.00     0.002 A 
ATOM      4  C5  UNL d   1       0.856   0.069  -1.461  0.00  0.00    -0.004 A 
ATOM      5  C6  UNL d   1       0.546   1.424  -1.572  0.00  0.00     0.002 A 
ATOM      6  C7  UNL d   1      -0.275   2.033  -0.622  0.00  0.00     0.002 A 
ENDROOT
BRANCH   1   7
ATOM      7  C1  UNL d   1      -1.640   1.960   1.500  0.00  0.00     0.055 C 
ATOM      8  C   UNL d   1      -0.891   2.075   2.820  0.00  0.00     0.019 C 
ENDBRANCH   1   7
TORSDOF 1
ENDMDL
