MODEL 1
REMARK minimizedAffinity -5.8055439
REMARK minimizedRMSD -1
REMARK  1 active torsions:
REMARK  status: ('A' for Active; 'I' for Inactive)
REMARK    1  A    between atoms: C1_2  and  C2_3 
ROOT
ATOM      1  C2  UNL d   1      -0.321   0.546  -0.047  0.00  0.00    -0.077 A 
ATOM      2  C3  UNL d   1      -0.682   1.812  -0.528  0.00  0.00     0.002 A 
ATOM      3  C4  UNL d   1      -1.493   2.653   0.236  0.00  0.00     0.002 A 
ATOM      4  C5  UNL d   1      -1.947   2.239   1.486  0.00  0.00    -0.004 A 
ATOM      5  C6  UNL d   1      -1.595   0.980   1.973  0.00  0.00     0.002 A 
ATOM      6  C7  UNL d   1      -0.786   0.138   1.210  0.00  0.00     0.002 A 
ENDROOT
BRANCH   1   7
ATOM      7  C1  UNL d   1       0.594  -0.343  -0.848  0.00  0.00     0.055 C 
ATOM      8  C   UNL d   1       0.269  -1.813  -0.629  0.00  0.00     0.019 C 
ENDBRANCH   1   7
TORSDOF 1
ENDMDL
