MODEL 1
REMARK minimizedAffinity -1.81157541
REMARK minimizedRMSD -1
REMARK  1 active torsions:
REMARK  status: ('A' for Active; 'I' for Inactive)
REMARK    1  A    between atoms: C1_2  and  C2_3 
ROOT
ATOM      1  C2  UNL d   1       0.956  -1.868  -1.186  0.00  0.00    -0.077 A 
ATOM      2  C3  UNL d   1      -0.148  -1.778  -2.045  0.00  0.00     0.002 A 
ATOM      3  C4  UNL d   1      -0.596  -2.902  -2.740  0.00  0.00     0.002 A 
ATOM      4  C5  UNL d   1       0.051  -4.126  -2.580  0.00  0.00    -0.004 A 
ATOM      5  C6  UNL d   1       1.151  -4.226  -1.730  0.00  0.00     0.002 A 
ATOM      6  C7  UNL d   1       1.601  -3.103  -1.035  0.00  0.00     0.002 A 
ENDROOT
BRANCH   1   7
ATOM      7  C1  UNL d   1       1.410  -0.668  -0.397  0.00  0.00     0.055 C 
ATOM      8  C   UNL d   1       0.383   0.453  -0.454  0.00  0.00     0.019 C 
ENDBRANCH   1   7
TORSDOF 1
ENDMDL
