MODEL 1
REMARK minimizedAffinity -6.03395081
REMARK minimizedRMSD -1
REMARK  1 active torsions:
REMARK  status: ('A' for Active; 'I' for Inactive)
REMARK    1  A    between atoms: C1_2  and  C2_3 
ROOT
ATOM      1  C2  UNL d   1      -0.354   0.960   0.229  0.00  0.00    -0.077 A 
ATOM      2  C3  UNL d   1       0.231   1.816  -0.714  0.00  0.00     0.002 A 
ATOM      3  C4  UNL d   1       0.090   3.200  -0.594  0.00  0.00     0.002 A 
ATOM      4  C5  UNL d   1      -0.632   3.739   0.469  0.00  0.00    -0.004 A 
ATOM      5  C6  UNL d   1      -1.220   2.895   1.410  0.00  0.00     0.002 A 
ATOM      6  C7  UNL d   1      -1.081   1.512   1.291  0.00  0.00     0.002 A 
ENDROOT
BRANCH   1   7
ATOM      7  C1  UNL d   1      -0.162  -0.531   0.128  0.00  0.00     0.055 C 
ATOM      8  C   UNL d   1       1.083  -0.980   0.879  0.00  0.00     0.019 C 
ENDBRANCH   1   7
TORSDOF 1
ENDMDL
