MODEL 1
REMARK minimizedAffinity -5.41026497
REMARK minimizedRMSD -1
REMARK  1 active torsions:
REMARK  status: ('A' for Active; 'I' for Inactive)
REMARK    1  A    between atoms: C1_2  and  C2_3 
ROOT
ATOM      1  C2  UNL d   1       0.052   0.001   0.287  0.00  0.00    -0.077 A 
ATOM      2  C3  UNL d   1      -0.550   1.012  -0.475  0.00  0.00     0.002 A 
ATOM      3  C4  UNL d   1      -1.511   1.849   0.096  0.00  0.00     0.002 A 
ATOM      4  C5  UNL d   1      -1.875   1.685   1.431  0.00  0.00    -0.004 A 
ATOM      5  C6  UNL d   1      -1.284   0.681   2.196  0.00  0.00     0.002 A 
ATOM      6  C7  UNL d   1      -0.324  -0.157   1.627  0.00  0.00     0.002 A 
ENDROOT
BRANCH   1   7
ATOM      7  C1  UNL d   1       1.125  -0.871  -0.312  0.00  0.00     0.055 C 
ATOM      8  C   UNL d   1       0.526  -1.972  -1.176  0.00  0.00     0.019 C 
ENDBRANCH   1   7
TORSDOF 1
ENDMDL
