MODEL 1
REMARK minimizedAffinity -2.63230801
REMARK minimizedRMSD -1
REMARK  1 active torsions:
REMARK  status: ('A' for Active; 'I' for Inactive)
REMARK    1  A    between atoms: C1_2  and  C2_3 
ROOT
ATOM      1  C2  UNL d   1      -0.535   0.531   0.593  0.00  0.00    -0.077 A 
ATOM      2  C3  UNL d   1      -0.432   1.523  -0.393  0.00  0.00     0.002 A 
ATOM      3  C4  UNL d   1      -0.821   2.836  -0.117  0.00  0.00     0.002 A 
ATOM      4  C5  UNL d   1      -1.312   3.168   1.143  0.00  0.00    -0.004 A 
ATOM      5  C6  UNL d   1      -1.421   2.188   2.129  0.00  0.00     0.002 A 
ATOM      6  C7  UNL d   1      -1.034   0.876   1.855  0.00  0.00     0.002 A 
ENDROOT
BRANCH   1   7
ATOM      7  C1  UNL d   1      -0.070  -0.874   0.313  0.00  0.00     0.055 C 
ATOM      8  C   UNL d   1       0.805  -0.930  -0.931  0.00  0.00     0.019 C 
ENDBRANCH   1   7
TORSDOF 1
ENDMDL
