MODEL 1
REMARK minimizedAffinity -6.17436981
REMARK minimizedRMSD -1
REMARK  1 active torsions:
REMARK  status: ('A' for Active; 'I' for Inactive)
REMARK    1  A    between atoms: C1_2  and  C2_3 
ROOT
ATOM      1  C2  UNL d   1      -0.911   1.868   0.551  0.00  0.00    -0.077 A 
ATOM      2  C3  UNL d   1      -1.746   1.666   1.659  0.00  0.00     0.002 A 
ATOM      3  C4  UNL d   1      -1.742   0.442   2.332  0.00  0.00     0.002 A 
ATOM      4  C5  UNL d   1      -0.902  -0.585   1.908  0.00  0.00    -0.004 A 
ATOM      5  C6  UNL d   1      -0.069  -0.394   0.806  0.00  0.00     0.002 A 
ATOM      6  C7  UNL d   1      -0.073   0.828   0.132  0.00  0.00     0.002 A 
ENDROOT
BRANCH   1   7
ATOM      7  C1  UNL d   1      -0.878   3.204  -0.146  0.00  0.00     0.055 C 
ATOM      8  C   UNL d   1       0.157   3.221  -1.260  0.00  0.00     0.019 C 
ENDBRANCH   1   7
TORSDOF 1
ENDMDL
