MODEL 1
REMARK minimizedAffinity -4.51150465
REMARK minimizedRMSD -1
REMARK  1 active torsions:
REMARK  status: ('A' for Active; 'I' for Inactive)
REMARK    1  A    between atoms: C1_2  and  C2_3 
ROOT
ATOM      1  C2  UNL d   1       0.281  -0.166   0.129  0.00  0.00    -0.077 A 
ATOM      2  C3  UNL d   1      -0.406   0.908  -0.456  0.00  0.00     0.002 A 
ATOM      3  C4  UNL d   1      -1.247   1.712   0.314  0.00  0.00     0.002 A 
ATOM      4  C5  UNL d   1      -1.406   1.455   1.674  0.00  0.00    -0.004 A 
ATOM      5  C6  UNL d   1      -0.729   0.389   2.265  0.00  0.00     0.002 A 
ATOM      6  C7  UNL d   1       0.111  -0.417   1.496  0.00  0.00     0.002 A 
ENDROOT
BRANCH   1   7
ATOM      7  C1  UNL d   1       1.227  -1.005  -0.690  0.00  0.00     0.055 C 
ATOM      8  C   UNL d   1       0.495  -1.731  -1.810  0.00  0.00     0.019 C 
ENDBRANCH   1   7
TORSDOF 1
ENDMDL
