MODEL 1
REMARK minimizedAffinity -3.86099792
REMARK minimizedRMSD -1
REMARK  1 active torsions:
REMARK  status: ('A' for Active; 'I' for Inactive)
REMARK    1  A    between atoms: C1_2  and  C2_3 
ROOT
ATOM      1  C2  UNL d   1       0.094   0.165   0.160  0.00  0.00    -0.077 A 
ATOM      2  C3  UNL d   1       0.133  -0.624   1.318  0.00  0.00     0.002 A 
ATOM      3  C4  UNL d   1      -0.614  -0.267   2.442  0.00  0.00     0.002 A 
ATOM      4  C5  UNL d   1      -1.408   0.878   2.417  0.00  0.00    -0.004 A 
ATOM      5  C6  UNL d   1      -1.451   1.671   1.271  0.00  0.00     0.002 A 
ATOM      6  C7  UNL d   1      -0.704   1.316   0.147  0.00  0.00     0.002 A 
ENDROOT
BRANCH   1   7
ATOM      7  C1  UNL d   1       0.861  -0.246  -1.070  0.00  0.00     0.055 C 
ATOM      8  C   UNL d   1       0.928  -1.761  -1.200  0.00  0.00     0.019 C 
ENDBRANCH   1   7
TORSDOF 1
ENDMDL
