MODEL 1
REMARK minimizedAffinity -4.1486454
REMARK minimizedRMSD -1
REMARK  1 active torsions:
REMARK  status: ('A' for Active; 'I' for Inactive)
REMARK    1  A    between atoms: C1_2  and  C2_3 
ROOT
ATOM      1  C2  UNL d   1      -1.064   1.020   0.854  0.00  0.00    -0.077 A 
ATOM      2  C3  UNL d   1      -0.325   1.140  -0.331  0.00  0.00     0.002 A 
ATOM      3  C4  UNL d   1      -0.205   2.377  -0.968  0.00  0.00     0.002 A 
ATOM      4  C5  UNL d   1      -0.819   3.503  -0.424  0.00  0.00    -0.004 A 
ATOM      5  C6  UNL d   1      -1.558   3.395   0.753  0.00  0.00     0.002 A 
ATOM      6  C7  UNL d   1      -1.679   2.159   1.390  0.00  0.00     0.002 A 
ENDROOT
BRANCH   1   7
ATOM      7  C1  UNL d   1      -1.153  -0.303   1.568  0.00  0.00     0.055 C 
ATOM      8  C   UNL d   1      -0.412  -0.266   2.897  0.00  0.00     0.019 C 
ENDBRANCH   1   7
TORSDOF 1
ENDMDL
