MODEL 1
REMARK minimizedAffinity -4.79630613
REMARK minimizedRMSD -1
REMARK  0 active torsions:
REMARK  status: ('A' for Active; 'I' for Inactive)
ROOT
ATOM      1  C   UNL d   1       0.945  -0.712   0.384  0.00  0.00     0.020 A 
ATOM      2  C1  UNL d   1       2.002  -1.461  -0.131  0.00  0.00     0.020 A 
ATOM      3  C2  UNL d   1       2.148  -2.803   0.228  0.00  0.00     0.034 A 
ATOM      4  C3  UNL d   1       1.234  -3.400   1.104  0.00  0.00     0.017 A 
ATOM      5  C4  UNL d   1       0.172  -2.647   1.620  0.00  0.00     0.017 A 
ATOM      6  C5  UNL d   1       0.032  -1.304   1.257  0.00  0.00     0.034 A 
ATOM      7 Cl   UNL d   1      -0.995  -3.315   2.706  0.00  0.00    -0.070 Cl
ATOM      8 Cl1  UNL d   1       1.474  -5.063   1.505  0.00  0.00    -0.070 Cl
ENDROOT
TORSDOF 0
ENDMDL
