MODEL 1
REMARK minimizedAffinity 3.27560163
REMARK minimizedRMSD -1
REMARK  0 active torsions:
REMARK  status: ('A' for Active; 'I' for Inactive)
ROOT
ATOM      1  C   UNL d   1       0.236  -0.030   1.423  0.00  0.00     0.020 A 
ATOM      2  C1  UNL d   1      -0.357  -1.261   1.704  0.00  0.00     0.020 A 
ATOM      3  C2  UNL d   1       0.241  -2.442   1.259  0.00  0.00     0.034 A 
ATOM      4  C3  UNL d   1       1.436  -2.395   0.531  0.00  0.00     0.017 A 
ATOM      5  C4  UNL d   1       2.030  -1.160   0.250  0.00  0.00     0.017 A 
ATOM      6  C5  UNL d   1       1.427   0.020   0.697  0.00  0.00     0.034 A 
ATOM      7 Cl   UNL d   1       3.504  -1.022  -0.643  0.00  0.00    -0.070 Cl
ATOM      8 Cl1  UNL d   1       2.120  -3.895   0.014  0.00  0.00    -0.070 Cl
ENDROOT
TORSDOF 0
ENDMDL
