MODEL 1
REMARK minimizedAffinity 1.72176456
REMARK minimizedRMSD -1
REMARK  0 active torsions:
REMARK  status: ('A' for Active; 'I' for Inactive)
ROOT
ATOM      1  C   UNL d   1       0.539  -0.609   0.386  0.00  0.00     0.020 A 
ATOM      2  C1  UNL d   1       1.609  -1.181  -0.302  0.00  0.00     0.020 A 
ATOM      3  C2  UNL d   1       1.949  -2.517  -0.079  0.00  0.00     0.034 A 
ATOM      4  C3  UNL d   1       1.219  -3.286   0.835  0.00  0.00     0.017 A 
ATOM      5  C4  UNL d   1       0.145  -2.711   1.525  0.00  0.00     0.017 A 
ATOM      6  C5  UNL d   1      -0.191  -1.373   1.297  0.00  0.00     0.034 A 
ATOM      7 Cl   UNL d   1      -0.803  -3.596   2.668  0.00  0.00    -0.070 Cl
ATOM      8 Cl1  UNL d   1       1.695  -4.931   1.062  0.00  0.00    -0.070 Cl
ENDROOT
TORSDOF 0
ENDMDL
