MODEL 1
REMARK minimizedAffinity 8.01270866
REMARK minimizedRMSD -1
REMARK  0 active torsions:
REMARK  status: ('A' for Active; 'I' for Inactive)
ROOT
ATOM      1  C   UNL d   1       2.133  -2.222  -0.344  0.00  0.00     0.020 A 
ATOM      2  C1  UNL d   1       1.849  -3.528   0.053  0.00  0.00     0.020 A 
ATOM      3  C2  UNL d   1       0.758  -3.782   0.888  0.00  0.00     0.034 A 
ATOM      4  C3  UNL d   1      -0.053  -2.729   1.327  0.00  0.00     0.017 A 
ATOM      5  C4  UNL d   1       0.233  -1.418   0.928  0.00  0.00     0.017 A 
ATOM      6  C5  UNL d   1       1.327  -1.169   0.093  0.00  0.00     0.034 A 
ATOM      7 Cl   UNL d   1      -0.721  -0.068   1.430  0.00  0.00    -0.070 Cl
ATOM      8 Cl1  UNL d   1      -1.385  -3.117   2.357  0.00  0.00    -0.070 Cl
ENDROOT
TORSDOF 0
ENDMDL
