MODEL 1
REMARK minimizedAffinity 2.09286308
REMARK minimizedRMSD -1
REMARK  0 active torsions:
REMARK  status: ('A' for Active; 'I' for Inactive)
ROOT
ATOM      1  C   UNL d   1       2.081  -2.932   0.520  0.00  0.00     0.020 A 
ATOM      2  C1  UNL d   1       1.894  -1.950  -0.452  0.00  0.00     0.020 A 
ATOM      3  C2  UNL d   1       0.756  -1.141  -0.417  0.00  0.00     0.034 A 
ATOM      4  C3  UNL d   1      -0.199  -1.312   0.592  0.00  0.00     0.017 A 
ATOM      5  C4  UNL d   1      -0.010  -2.298   1.567  0.00  0.00     0.017 A 
ATOM      6  C5  UNL d   1       1.131  -3.106   1.527  0.00  0.00     0.034 A 
ATOM      7 Cl   UNL d   1      -1.144  -2.569   2.843  0.00  0.00    -0.070 Cl
ATOM      8 Cl1  UNL d   1      -1.582  -0.276   0.574  0.00  0.00    -0.070 Cl
ENDROOT
TORSDOF 0
ENDMDL
