MODEL 1
REMARK minimizedAffinity 2.92263818
REMARK minimizedRMSD -1
REMARK  0 active torsions:
REMARK  status: ('A' for Active; 'I' for Inactive)
ROOT
ATOM      1  C   UNL d   1       1.824  -3.875   0.126  0.00  0.00     0.020 A 
ATOM      2  C1  UNL d   1       2.296  -2.574  -0.046  0.00  0.00     0.020 A 
ATOM      3  C2  UNL d   1       1.584  -1.497   0.487  0.00  0.00     0.034 A 
ATOM      4  C3  UNL d   1       0.397  -1.719   1.195  0.00  0.00     0.017 A 
ATOM      5  C4  UNL d   1      -0.076  -3.025   1.366  0.00  0.00     0.017 A 
ATOM      6  C5  UNL d   1       0.641  -4.099   0.831  0.00  0.00     0.034 A 
ATOM      7 Cl   UNL d   1      -1.533  -3.378   2.227  0.00  0.00    -0.070 Cl
ATOM      8 Cl1  UNL d   1      -0.431  -0.340   1.827  0.00  0.00    -0.070 Cl
ENDROOT
TORSDOF 0
ENDMDL
