MODEL 1
REMARK minimizedAffinity 0.474566162
REMARK minimizedRMSD -1
REMARK  0 active torsions:
REMARK  status: ('A' for Active; 'I' for Inactive)
ROOT
ATOM      1  C   UNL d   1      -1.061  -2.455   2.660  0.00  0.00     0.020 A 
ATOM      2  C1  UNL d   1      -0.503  -3.731   2.724  0.00  0.00     0.020 A 
ATOM      3  C2  UNL d   1       0.666  -4.018   2.014  0.00  0.00     0.034 A 
ATOM      4  C3  UNL d   1       1.279  -3.028   1.238  0.00  0.00     0.017 A 
ATOM      5  C4  UNL d   1       0.717  -1.747   1.175  0.00  0.00     0.017 A 
ATOM      6  C5  UNL d   1      -0.453  -1.466   1.888  0.00  0.00     0.034 A 
ATOM      7 Cl   UNL d   1       1.416  -0.473   0.239  0.00  0.00    -0.070 Cl
ATOM      8 Cl1  UNL d   1       2.722  -3.452   0.388  0.00  0.00    -0.070 Cl
ENDROOT
TORSDOF 0
ENDMDL
