MODEL 1
REMARK minimizedAffinity 3.68150735
REMARK minimizedRMSD -1
REMARK  0 active torsions:
REMARK  status: ('A' for Active; 'I' for Inactive)
ROOT
ATOM      1  C   UNL d   1       0.057  -1.371   1.651  0.00  0.00     0.020 A 
ATOM      2  C1  UNL d   1      -0.897  -2.134   2.324  0.00  0.00     0.020 A 
ATOM      3  C2  UNL d   1      -0.787  -3.526   2.349  0.00  0.00     0.034 A 
ATOM      4  C3  UNL d   1       0.279  -4.160   1.701  0.00  0.00     0.017 A 
ATOM      5  C4  UNL d   1       1.236  -3.393   1.025  0.00  0.00     0.017 A 
ATOM      6  C5  UNL d   1       1.121  -2.000   1.003  0.00  0.00     0.034 A 
ATOM      7 Cl   UNL d   1       2.579  -4.104   0.202  0.00  0.00    -0.070 Cl
ATOM      8 Cl1  UNL d   1       0.352  -5.884   1.773  0.00  0.00    -0.070 Cl
ENDROOT
TORSDOF 0
ENDMDL
