MODEL 1
REMARK minimizedAffinity -0.284507573
REMARK minimizedRMSD -1
REMARK  0 active torsions:
REMARK  status: ('A' for Active; 'I' for Inactive)
ROOT
ATOM      1  C   UNL d   1      -3.395   5.304   5.241  0.00  0.00     0.020 A 
ATOM      2  C1  UNL d   1      -4.564   5.252   5.999  0.00  0.00     0.020 A 
ATOM      3  C2  UNL d   1      -5.344   4.093   5.999  0.00  0.00     0.034 A 
ATOM      4  C3  UNL d   1      -4.956   2.983   5.240  0.00  0.00     0.017 A 
ATOM      5  C4  UNL d   1      -3.783   3.037   4.479  0.00  0.00     0.017 A 
ATOM      6  C5  UNL d   1      -3.005   4.200   4.483  0.00  0.00     0.034 A 
ATOM      7 Cl   UNL d   1      -3.239   1.708   3.517  0.00  0.00    -0.070 Cl
ATOM      8 Cl1  UNL d   1      -5.969   1.584   5.288  0.00  0.00    -0.070 Cl
ENDROOT
TORSDOF 0
ENDMDL
