MODEL 1
REMARK minimizedAffinity 10.2837534
REMARK minimizedRMSD -1
REMARK  0 active torsions:
REMARK  status: ('A' for Active; 'I' for Inactive)
ROOT
ATOM      1  C   UNL d   1       2.100  -4.447   0.629  0.00  0.00     0.020 A 
ATOM      2  C1  UNL d   1       1.449  -3.272   0.255  0.00  0.00     0.020 A 
ATOM      3  C2  UNL d   1       2.191  -2.165  -0.162  0.00  0.00     0.034 A 
ATOM      4  C3  UNL d   1       3.589  -2.231  -0.207  0.00  0.00     0.017 A 
ATOM      5  C4  UNL d   1       4.241  -3.410   0.168  0.00  0.00     0.017 A 
ATOM      6  C5  UNL d   1       3.493  -4.516   0.585  0.00  0.00     0.034 A 
ATOM      7 Cl   UNL d   1       5.962  -3.567   0.139  0.00  0.00    -0.070 Cl
ATOM      8 Cl1  UNL d   1       4.443  -0.824  -0.734  0.00  0.00    -0.070 Cl
ENDROOT
TORSDOF 0
ENDMDL
