MODEL 1
REMARK minimizedAffinity 2.28149557
REMARK minimizedRMSD -1
REMARK  0 active torsions:
REMARK  status: ('A' for Active; 'I' for Inactive)
ROOT
ATOM      1  C   UNL d   1      -2.120  -0.804  -5.962  0.00  0.00     0.020 A 
ATOM      2  C1  UNL d   1      -2.120  -2.191  -5.823  0.00  0.00     0.020 A 
ATOM      3  C2  UNL d   1      -3.329  -2.883  -5.721  0.00  0.00     0.034 A 
ATOM      4  C3  UNL d   1      -4.543  -2.188  -5.757  0.00  0.00     0.017 A 
ATOM      5  C4  UNL d   1      -4.542  -0.795  -5.897  0.00  0.00     0.017 A 
ATOM      6  C5  UNL d   1      -3.329  -0.107  -5.999  0.00  0.00     0.034 A 
ATOM      7 Cl   UNL d   1      -6.000   0.132  -5.950  0.00  0.00    -0.070 Cl
ATOM      8 Cl1  UNL d   1      -6.000  -3.107  -5.626  0.00  0.00    -0.070 Cl
ENDROOT
TORSDOF 0
ENDMDL
