MODEL 1
REMARK minimizedAffinity 1.9733845
REMARK minimizedRMSD -1
REMARK  0 active torsions:
REMARK  status: ('A' for Active; 'I' for Inactive)
ROOT
ATOM      1  C   UNL d   1      -0.454  -0.851   0.269  0.00  0.00    -0.002 A 
ATOM      2  C1  UNL d   1       0.808  -0.275   0.259  0.00  0.00     0.010 A 
ATOM      3  C2  UNL d   1       1.051   0.891  -0.470  0.00  0.00     0.041 A 
ATOM      4  C3  UNL d   1      -0.007   1.475  -1.194  0.00  0.00    -0.075 A 
ATOM      5  S   UNL d   1       0.057   2.904  -2.157  0.00  0.00     0.015 SA
ATOM      6  C4  UNL d   1      -1.590   2.784  -2.577  0.00  0.00     0.022 A 
ATOM      7  C5  UNL d   1      -2.190   1.686  -2.005  0.00  0.00     0.026 A 
ATOM      8  C6  UNL d   1      -1.287   0.914  -1.198  0.00  0.00    -0.082 A 
ATOM      9  C7  UNL d   1      -1.501  -0.268  -0.451  0.00  0.00     0.045 A 
ENDROOT
TORSDOF 0
ENDMDL
