MODEL 1
REMARK minimizedAffinity 14.1531277
REMARK minimizedRMSD -1
REMARK  1 active torsions:
REMARK  status: ('A' for Active; 'I' for Inactive)
REMARK    1  A    between atoms: N_2  and  C1_3 
ROOT
ATOM      1  C1  UNL d   1      -1.525  -3.934  -1.113  0.00  0.00     0.143 A 
ATOM      2  C2  UNL d   1      -1.959  -2.609  -1.222  0.00  0.00    -0.057 A 
ATOM      3  C3  UNL d   1      -2.006  -1.765  -0.106  0.00  0.00     0.033 A 
ATOM      4  C4  UNL d   1      -1.644  -2.243   1.150  0.00  0.00    -0.042 A 
ATOM      5  C5  UNL d   1      -1.233  -3.564   1.287  0.00  0.00     0.033 A 
ATOM      6  C6  UNL d   1      -1.183  -4.399   0.167  0.00  0.00    -0.057 A 
ENDROOT
BRANCH   1   7
ATOM      7  N   UNL d   1      -1.550  -4.851  -2.167  0.00  0.00    -0.732 N 
ATOM      8  C   UNL d   1      -2.439  -5.992  -2.130  0.00  0.00     0.284 C 
ATOM      9  H3  UNL d   1      -1.491  -4.399  -3.076  0.00  0.00     0.395 HD
ENDBRANCH   1   7
TORSDOF 1
ENDMDL
