MODEL 1
REMARK minimizedAffinity 12.6025229
REMARK minimizedRMSD -1
REMARK  1 active torsions:
REMARK  status: ('A' for Active; 'I' for Inactive)
REMARK    1  A    between atoms: N_2  and  C1_3 
ROOT
ATOM      1  C1  UNL d   1       3.965  -4.081  -4.836  0.00  0.00     0.143 A 
ATOM      2  C2  UNL d   1       3.206  -4.327  -3.687  0.00  0.00    -0.057 A 
ATOM      3  C3  UNL d   1       2.186  -5.286  -3.682  0.00  0.00     0.033 A 
ATOM      4  C4  UNL d   1       1.888  -5.999  -4.839  0.00  0.00    -0.042 A 
ATOM      5  C5  UNL d   1       2.613  -5.753  -6.000  0.00  0.00     0.033 A 
ATOM      6  C6  UNL d   1       3.634  -4.798  -5.996  0.00  0.00    -0.057 A 
ENDROOT
BRANCH   1   7
ATOM      7  N   UNL d   1       4.926  -3.071  -4.932  0.00  0.00    -0.732 N 
ATOM      8  C   UNL d   1       5.278  -2.277  -3.775  0.00  0.00     0.284 C 
ATOM      9  H3  UNL d   1       5.720  -3.345  -5.506  0.00  0.00     0.395 HD
ENDBRANCH   1   7
TORSDOF 1
ENDMDL
