MODEL 1
REMARK minimizedAffinity 13.5282383
REMARK minimizedRMSD -1
REMARK  1 active torsions:
REMARK  status: ('A' for Active; 'I' for Inactive)
REMARK    1  A    between atoms: N_2  and  C1_3 
ROOT
ATOM      1  C1  UNL d   1       1.065   1.882   2.469  0.00  0.00     0.143 A 
ATOM      2  C2  UNL d   1      -0.254   2.328   2.334  0.00  0.00    -0.057 A 
ATOM      3  C3  UNL d   1      -0.824   2.538   1.073  0.00  0.00     0.033 A 
ATOM      4  C4  UNL d   1      -0.072   2.333  -0.080  0.00  0.00    -0.042 A 
ATOM      5  C5  UNL d   1       1.249   1.914   0.031  0.00  0.00     0.033 A 
ATOM      6  C6  UNL d   1       1.810   1.699   1.294  0.00  0.00    -0.057 A 
ENDROOT
BRANCH   1   7
ATOM      7  N   UNL d   1       1.720   1.749   3.696  0.00  0.00    -0.732 N 
ATOM      8  C   UNL d   1       2.892   2.543   3.996  0.00  0.00     0.284 C 
ATOM      9  H3  UNL d   1       1.071   1.656   4.475  0.00  0.00     0.395 HD
ENDBRANCH   1   7
TORSDOF 1
ENDMDL
