MODEL 1
REMARK minimizedAffinity 6.81782389
REMARK minimizedRMSD -1
REMARK  1 active torsions:
REMARK  status: ('A' for Active; 'I' for Inactive)
REMARK    1  A    between atoms: N_2  and  C1_3 
ROOT
ATOM      1  C1  UNL d   1       3.127  -5.264  -3.173  0.00  0.00     0.143 A 
ATOM      2  C2  UNL d   1       2.171  -5.998  -3.883  0.00  0.00    -0.057 A 
ATOM      3  C3  UNL d   1       2.144  -5.992  -5.283  0.00  0.00     0.033 A 
ATOM      4  C4  UNL d   1       3.057  -5.225  -5.999  0.00  0.00    -0.042 A 
ATOM      5  C5  UNL d   1       4.000  -4.467  -5.314  0.00  0.00     0.033 A 
ATOM      6  C6  UNL d   1       4.026  -4.483  -3.916  0.00  0.00    -0.057 A 
ENDROOT
BRANCH   1   7
ATOM      7  N   UNL d   1       3.144  -5.151  -1.781  0.00  0.00    -0.732 N 
ATOM      8  C   UNL d   1       2.304  -5.999  -0.962  0.00  0.00     0.284 C 
ATOM      9  H3  UNL d   1       4.084  -5.018  -1.414  0.00  0.00     0.395 HD
ENDBRANCH   1   7
TORSDOF 1
ENDMDL
