MODEL 1
REMARK minimizedAffinity 5.49664021
REMARK minimizedRMSD -1
REMARK  1 active torsions:
REMARK  status: ('A' for Active; 'I' for Inactive)
REMARK    1  A    between atoms: N_2  and  C1_3 
ROOT
ATOM      1  C1  UNL d   1       1.088   3.105   1.457  0.00  0.00     0.143 A 
ATOM      2  C2  UNL d   1       0.112   3.133   0.455  0.00  0.00    -0.057 A 
ATOM      3  C3  UNL d   1      -1.234   3.367   0.760  0.00  0.00     0.033 A 
ATOM      4  C4  UNL d   1      -1.634   3.548   2.080  0.00  0.00    -0.042 A 
ATOM      5  C5  UNL d   1      -0.685   3.499   3.094  0.00  0.00     0.033 A 
ATOM      6  C6  UNL d   1       0.660   3.272   2.783  0.00  0.00    -0.057 A 
ENDROOT
BRANCH   1   7
ATOM      7  N   UNL d   1       2.428   2.780   1.229  0.00  0.00    -0.732 N 
ATOM      8  C   UNL d   1       2.781   1.587   0.490  0.00  0.00     0.284 C 
ATOM      9  H3  UNL d   1       2.991   3.595   0.997  0.00  0.00     0.395 HD
ENDBRANCH   1   7
TORSDOF 1
ENDMDL
