MODEL 1
REMARK minimizedAffinity 0.041343879
REMARK minimizedRMSD -1
REMARK  1 active torsions:
REMARK  status: ('A' for Active; 'I' for Inactive)
REMARK    1  A    between atoms: N_2  and  C1_3 
ROOT
ATOM      1  C1  UNL d   1       2.349   2.258   0.988  0.00  0.00     0.143 A 
ATOM      2  C2  UNL d   1       2.750   2.023  -0.331  0.00  0.00    -0.057 A 
ATOM      3  C3  UNL d   1       4.078   2.216  -0.732  0.00  0.00     0.033 A 
ATOM      4  C4  UNL d   1       5.024   2.677   0.177  0.00  0.00    -0.042 A 
ATOM      5  C5  UNL d   1       4.643   2.942   1.487  0.00  0.00     0.033 A 
ATOM      6  C6  UNL d   1       3.317   2.741   1.883  0.00  0.00    -0.057 A 
ENDROOT
BRANCH   1   7
ATOM      7  N   UNL d   1       1.024   2.180   1.424  0.00  0.00    -0.732 N 
ATOM      8  C   UNL d   1      -0.009   2.971   0.790  0.00  0.00     0.284 C 
ATOM      9  H3  UNL d   1       0.742   1.227   1.642  0.00  0.00     0.395 HD
ENDBRANCH   1   7
TORSDOF 1
ENDMDL
