MODEL 1
REMARK minimizedAffinity 3.43527937
REMARK minimizedRMSD -1
REMARK  1 active torsions:
REMARK  status: ('A' for Active; 'I' for Inactive)
REMARK    1  A    between atoms: N_2  and  C1_3 
ROOT
ATOM      1  C1  UNL d   1      -0.558  -4.803   1.336  0.00  0.00     0.143 A 
ATOM      2  C2  UNL d   1      -0.392  -3.605   2.038  0.00  0.00    -0.057 A 
ATOM      3  C3  UNL d   1       0.012  -3.598   3.379  0.00  0.00     0.033 A 
ATOM      4  C4  UNL d   1       0.230  -4.796   4.052  0.00  0.00    -0.042 A 
ATOM      5  C5  UNL d   1       0.047  -6.000   3.382  0.00  0.00     0.033 A 
ATOM      6  C6  UNL d   1      -0.350  -6.000   2.041  0.00  0.00    -0.057 A 
ENDROOT
BRANCH   1   7
ATOM      7  N   UNL d   1      -1.053  -4.879   0.032  0.00  0.00    -0.732 N 
ATOM      8  C   UNL d   1      -2.478  -4.881  -0.217  0.00  0.00     0.284 C 
ATOM      9  H3  UNL d   1      -0.518  -4.310  -0.620  0.00  0.00     0.395 HD
ENDBRANCH   1   7
TORSDOF 1
ENDMDL
