MODEL 1
REMARK minimizedAffinity 3.60198832
REMARK minimizedRMSD -1
REMARK  1 active torsions:
REMARK  status: ('A' for Active; 'I' for Inactive)
REMARK    1  A    between atoms: N_2  and  C1_3 
ROOT
ATOM      1  C1  UNL d   1       2.451   0.969  -0.340  0.00  0.00     0.143 A 
ATOM      2  C2  UNL d   1       2.508  -0.416  -0.151  0.00  0.00    -0.057 A 
ATOM      3  C3  UNL d   1       2.302  -1.303  -1.215  0.00  0.00     0.033 A 
ATOM      4  C4  UNL d   1       2.004  -0.818  -2.484  0.00  0.00    -0.042 A 
ATOM      5  C5  UNL d   1       1.917   0.554  -2.690  0.00  0.00     0.033 A 
ATOM      6  C6  UNL d   1       2.131   1.435  -1.625  0.00  0.00    -0.057 A 
ENDROOT
BRANCH   1   7
ATOM      7  N   UNL d   1       2.550   1.900   0.697  0.00  0.00    -0.732 N 
ATOM      8  C   UNL d   1       1.447   2.788   0.998  0.00  0.00     0.284 C 
ATOM      9  H3  UNL d   1       3.012   1.518   1.519  0.00  0.00     0.395 HD
ENDBRANCH   1   7
TORSDOF 1
ENDMDL
