MODEL 1
REMARK minimizedAffinity 6.69466019
REMARK minimizedRMSD -1
REMARK  0 active torsions:
REMARK  status: ('A' for Active; 'I' for Inactive)
ROOT
ATOM      1  C1  DEN d   1      -0.352  -2.548  -1.931  0.00  0.00     0.130 A 
ATOM      2  C2  DEN d   1      -0.481  -1.145  -2.313  0.00  0.00    -0.031 A 
ATOM      3  C3  DEN d   1       0.729  -0.434  -1.854  0.00  0.00     0.027 A 
ATOM      4  C4  DEN d   1       2.782  -1.366  -0.601  0.00  0.00     0.027 A 
ATOM      5  C5  DEN d   1       3.341  -2.497  -0.048  0.00  0.00    -0.003 A 
ATOM      6  C6  DEN d   1       2.699  -3.707  -0.054  0.00  0.00     0.001 A 
ATOM      7  C7  DEN d   1       1.479  -3.824  -0.664  0.00  0.00     0.017 A 
ATOM      8  C8  DEN d   1       0.905  -2.687  -1.217  0.00  0.00    -0.094 A 
ATOM      9  C9  DEN d   1       1.575  -1.476  -1.212  0.00  0.00    -0.072 A 
ENDROOT
TORSDOF 0
ENDMDL
