MODEL 1
REMARK minimizedAffinity 18.3359871
REMARK minimizedRMSD -1
REMARK  0 active torsions:
REMARK  status: ('A' for Active; 'I' for Inactive)
ROOT
ATOM      1  C1  DEN d   1      -0.274   5.772  -0.504  0.00  0.00     0.130 A 
ATOM      2  C2  DEN d   1      -0.481   5.984  -1.934  0.00  0.00    -0.031 A 
ATOM      3  C3  DEN d   1      -0.745   4.671  -2.557  0.00  0.00     0.027 A 
ATOM      4  C4  DEN d   1      -0.858   2.344  -1.450  0.00  0.00     0.027 A 
ATOM      5  C5  DEN d   1      -0.738   1.660  -0.261  0.00  0.00    -0.003 A 
ATOM      6  C6  DEN d   1      -0.424   2.288   0.915  0.00  0.00     0.001 A 
ATOM      7  C7  DEN d   1      -0.264   3.648   0.935  0.00  0.00     0.017 A 
ATOM      8  C8  DEN d   1      -0.376   4.344  -0.261  0.00  0.00    -0.094 A 
ATOM      9  C9  DEN d   1      -0.706   3.693  -1.437  0.00  0.00    -0.072 A 
ENDROOT
TORSDOF 0
ENDMDL
