MODEL 1
REMARK minimizedAffinity 8.43248844
REMARK minimizedRMSD -1
REMARK  0 active torsions:
REMARK  status: ('A' for Active; 'I' for Inactive)
ROOT
ATOM      1  C1  DEN d   1      -0.210   1.310   2.080  0.00  0.00     0.130 A 
ATOM      2  C2  DEN d   1       0.403   1.991   3.217  0.00  0.00    -0.031 A 
ATOM      3  C3  DEN d   1       0.674   3.387   2.821  0.00  0.00     0.027 A 
ATOM      4  C4  DEN d   1       0.203   4.556   0.570  0.00  0.00     0.027 A 
ATOM      5  C5  DEN d   1      -0.296   4.383  -0.702  0.00  0.00    -0.003 A 
ATOM      6  C6  DEN d   1      -0.765   3.174  -1.144  0.00  0.00     0.001 A 
ATOM      7  C7  DEN d   1      -0.788   2.102  -0.291  0.00  0.00     0.017 A 
ATOM      8  C8  DEN d   1      -0.280   2.267   0.991  0.00  0.00    -0.094 A 
ATOM      9  C9  DEN d   1       0.179   3.500   1.422  0.00  0.00    -0.072 A 
ENDROOT
TORSDOF 0
ENDMDL
