MODEL 1
REMARK minimizedAffinity 11.6105566
REMARK minimizedRMSD -1
REMARK  0 active torsions:
REMARK  status: ('A' for Active; 'I' for Inactive)
ROOT
ATOM      1  C1  DEN d   1      -3.496  -1.030  -2.258  0.00  0.00     0.130 A 
ATOM      2  C2  DEN d   1      -3.565  -0.382  -0.951  0.00  0.00    -0.031 A 
ATOM      3  C3  DEN d   1      -2.184  -0.135  -0.490  0.00  0.00     0.027 A 
ATOM      4  C4  DEN d   1       0.043  -0.685  -1.670  0.00  0.00     0.027 A 
ATOM      5  C5  DEN d   1       0.610  -1.247  -2.792  0.00  0.00    -0.003 A 
ATOM      6  C6  DEN d   1      -0.145  -1.802  -3.791  0.00  0.00     0.001 A 
ATOM      7  C7  DEN d   1      -1.512  -1.767  -3.709  0.00  0.00     0.017 A 
ATOM      8  C8  DEN d   1      -2.091  -1.209  -2.577  0.00  0.00    -0.094 A 
ATOM      9  C9  DEN d   1      -1.311  -0.642  -1.583  0.00  0.00    -0.072 A 
ENDROOT
TORSDOF 0
ENDMDL
