MODEL 1
REMARK minimizedAffinity 10.0619154
REMARK minimizedRMSD -1
REMARK  0 active torsions:
REMARK  status: ('A' for Active; 'I' for Inactive)
ROOT
ATOM      1  C1  DEN d   1      -1.203   5.181   0.368  0.00  0.00     0.130 A 
ATOM      2  C2  DEN d   1      -1.055   5.525  -1.043  0.00  0.00    -0.031 A 
ATOM      3  C3  DEN d   1      -0.717   4.290  -1.780  0.00  0.00     0.027 A 
ATOM      4  C4  DEN d   1      -0.418   1.892  -0.878  0.00  0.00     0.027 A 
ATOM      5  C5  DEN d   1      -0.433   1.109   0.255  0.00  0.00    -0.003 A 
ATOM      6  C6  DEN d   1      -0.671   1.630   1.499  0.00  0.00     0.001 A 
ATOM      7  C7  DEN d   1      -0.948   2.965   1.635  0.00  0.00     0.017 A 
ATOM      8  C8  DEN d   1      -0.927   3.762   0.498  0.00  0.00    -0.094 A 
ATOM      9  C9  DEN d   1      -0.697   3.215  -0.753  0.00  0.00    -0.072 A 
ENDROOT
TORSDOF 0
ENDMDL
