MODEL 1
REMARK minimizedAffinity 4.20494699
REMARK minimizedRMSD -1
REMARK  0 active torsions:
REMARK  status: ('A' for Active; 'I' for Inactive)
ROOT
ATOM      1  C1  DEN d   1      -2.356   0.001  -1.211  0.00  0.00     0.130 A 
ATOM      2  C2  DEN d   1      -3.473  -0.465  -0.394  0.00  0.00    -0.031 A 
ATOM      3  C3  DEN d   1      -3.398   0.217   0.913  0.00  0.00     0.027 A 
ATOM      4  C4  DEN d   1      -1.673   1.944   1.746  0.00  0.00     0.027 A 
ATOM      5  C5  DEN d   1      -0.534   2.643   1.413  0.00  0.00    -0.003 A 
ATOM      6  C6  DEN d   1       0.092   2.487   0.205  0.00  0.00     0.001 A 
ATOM      7  C7  DEN d   1      -0.444   1.643  -0.733  0.00  0.00     0.017 A 
ATOM      8  C8  DEN d   1      -1.588   0.929  -0.402  0.00  0.00    -0.094 A 
ATOM      9  C9  DEN d   1      -2.213   1.111   0.821  0.00  0.00    -0.072 A 
ENDROOT
TORSDOF 0
ENDMDL
