MODEL 1
REMARK minimizedAffinity 8.12005234
REMARK minimizedRMSD -1
REMARK  0 active torsions:
REMARK  status: ('A' for Active; 'I' for Inactive)
ROOT
ATOM      1  C1  DEN d   1      -3.344  -1.097  -1.496  0.00  0.00     0.130 A 
ATOM      2  C2  DEN d   1      -3.895   0.143  -0.956  0.00  0.00    -0.031 A 
ATOM      3  C3  DEN d   1      -2.768   1.038  -0.627  0.00  0.00     0.027 A 
ATOM      4  C4  DEN d   1      -0.237   0.630  -0.907  0.00  0.00     0.027 A 
ATOM      5  C5  DEN d   1       0.716  -0.278  -1.314  0.00  0.00    -0.003 A 
ATOM      6  C6  DEN d   1       0.386  -1.525  -1.774  0.00  0.00     0.001 A 
ATOM      7  C7  DEN d   1      -0.933  -1.882  -1.882  0.00  0.00     0.017 A 
ATOM      8  C8  DEN d   1      -1.898  -0.975  -1.467  0.00  0.00    -0.094 A 
ATOM      9  C9  DEN d   1      -1.545   0.286  -1.015  0.00  0.00    -0.072 A 
ENDROOT
TORSDOF 0
ENDMDL
