MODEL 1
REMARK minimizedAffinity -0.972169638
REMARK minimizedRMSD -1
REMARK  0 active torsions:
REMARK  status: ('A' for Active; 'I' for Inactive)
ROOT
ATOM      1  C1  DEN d   1      -2.864   1.548  -1.117  0.00  0.00     0.130 A 
ATOM      2  C2  DEN d   1      -4.122   0.826  -0.952  0.00  0.00    -0.031 A 
ATOM      3  C3  DEN d   1      -3.817  -0.618  -0.906  0.00  0.00     0.027 A 
ATOM      4  C4  DEN d   1      -1.531  -1.800  -1.069  0.00  0.00     0.027 A 
ATOM      5  C5  DEN d   1      -0.176  -1.606  -1.227  0.00  0.00    -0.003 A 
ATOM      6  C6  DEN d   1       0.370  -0.361  -1.392  0.00  0.00     0.001 A 
ATOM      7  C7  DEN d   1      -0.439   0.744  -1.357  0.00  0.00     0.017 A 
ATOM      8  C8  DEN d   1      -1.807   0.557  -1.206  0.00  0.00    -0.094 A 
ATOM      9  C9  DEN d   1      -2.338  -0.709  -1.028  0.00  0.00    -0.072 A 
ENDROOT
TORSDOF 0
ENDMDL
