MODEL 1
REMARK minimizedAffinity 7.56677055
REMARK minimizedRMSD -1
REMARK  0 active torsions:
REMARK  status: ('A' for Active; 'I' for Inactive)
ROOT
ATOM      1  C1  DEN d   1       3.336  -4.992  -1.377  0.00  0.00     0.130 A 
ATOM      2  C2  DEN d   1       2.453  -5.003  -0.215  0.00  0.00    -0.031 A 
ATOM      3  C3  DEN d   1       2.617  -3.719   0.495  0.00  0.00     0.027 A 
ATOM      4  C4  DEN d   1       4.141  -1.722  -0.093  0.00  0.00     0.027 A 
ATOM      5  C5  DEN d   1       5.082  -1.253  -0.982  0.00  0.00    -0.003 A 
ATOM      6  C6  DEN d   1       5.529  -2.003  -2.037  0.00  0.00     0.001 A 
ATOM      7  C7  DEN d   1       5.001  -3.248  -2.256  0.00  0.00     0.017 A 
ATOM      8  C8  DEN d   1       4.057  -3.732  -1.359  0.00  0.00    -0.094 A 
ATOM      9  C9  DEN d   1       3.609  -2.953  -0.306  0.00  0.00    -0.072 A 
ENDROOT
TORSDOF 0
ENDMDL
