MODEL 1
REMARK minimizedAffinity 12.3919458
REMARK minimizedRMSD -1
REMARK  0 active torsions:
REMARK  status: ('A' for Active; 'I' for Inactive)
ROOT
ATOM      1  C1  DEN d   1       2.779  -0.983  -0.382  0.00  0.00     0.130 A 
ATOM      2  C2  DEN d   1       1.955  -1.960   0.325  0.00  0.00    -0.031 A 
ATOM      3  C3  DEN d   1       2.638  -3.267   0.258  0.00  0.00     0.027 A 
ATOM      4  C4  DEN d   1       4.882  -3.870  -0.861  0.00  0.00     0.027 A 
ATOM      5  C5  DEN d   1       5.939  -3.378  -1.595  0.00  0.00    -0.003 A 
ATOM      6  C6  DEN d   1       5.999  -2.071  -2.001  0.00  0.00     0.001 A 
ATOM      7  C7  DEN d   1       5.006  -1.201  -1.638  0.00  0.00     0.017 A 
ATOM      8  C8  DEN d   1       3.934  -1.691  -0.905  0.00  0.00    -0.094 A 
ATOM      9  C9  DEN d   1       3.897  -3.013  -0.493  0.00  0.00    -0.072 A 
ENDROOT
TORSDOF 0
ENDMDL
