MODEL 1
REMARK minimizedAffinity -1.59344304
REMARK minimizedRMSD -1
REMARK  1 active torsions:
REMARK  status: ('A' for Active; 'I' for Inactive)
REMARK    1  A    between atoms: C3_4  and  O_7 
ROOT
ATOM      1  C   UNL d   1       4.240   1.920   5.089  0.00  0.00    -0.033 A 
ATOM      2  C1  UNL d   1       3.761   2.874   5.989  0.00  0.00     0.039 A 
ATOM      3  C2  UNL d   1       4.303   4.161   6.000  0.00  0.00    -0.080 A 
ATOM      4  C3  UNL d   1       5.321   4.481   5.106  0.00  0.00     0.150 A 
ATOM      5  C4  UNL d   1       5.801   3.537   4.204  0.00  0.00    -0.007 A 
ATOM      6  C5  UNL d   1       5.259   2.252   4.195  0.00  0.00     0.039 A 
ENDROOT
BRANCH   4   7
ATOM      7  O   UNL d   1       5.884   5.722   5.083  0.00  0.00    -0.526 OA
ATOM      8  H5  UNL d   1       5.473   6.260   5.780  0.00  0.00     0.418 HD
ENDBRANCH   4   7
TORSDOF 1
ENDMDL
