MODEL 1
REMARK minimizedAffinity 1.26948023
REMARK minimizedRMSD -1
REMARK  1 active torsions:
REMARK  status: ('A' for Active; 'I' for Inactive)
REMARK    1  A    between atoms: C3_4  and  O_7 
ROOT
ATOM      1  C   UNL d   1       4.855   4.234   4.523  0.00  0.00    -0.033 A 
ATOM      2  C1  UNL d   1       5.257   3.001   4.007  0.00  0.00     0.039 A 
ATOM      3  C2  UNL d   1       4.687   1.821   4.489  0.00  0.00    -0.080 A 
ATOM      4  C3  UNL d   1       3.716   1.888   5.485  0.00  0.00     0.150 A 
ATOM      5  C4  UNL d   1       3.307   3.114   6.000  0.00  0.00    -0.007 A 
ATOM      6  C5  UNL d   1       3.878   4.291   5.518  0.00  0.00     0.039 A 
ENDROOT
BRANCH   4   7
ATOM      7  O   UNL d   1       3.135   0.763   5.990  0.00  0.00    -0.526 OA
ATOM      8  H5  UNL d   1       3.536  -0.010   5.560  0.00  0.00     0.418 HD
ENDBRANCH   4   7
TORSDOF 1
ENDMDL
