MODEL 1
REMARK minimizedAffinity -2.14441323
REMARK minimizedRMSD -1
REMARK  1 active torsions:
REMARK  status: ('A' for Active; 'I' for Inactive)
REMARK    1  A    between atoms: C3_4  and  O_7 
ROOT
ATOM      1  C   UNL d   1       3.553   2.416   4.876  0.00  0.00    -0.033 A 
ATOM      2  C1  UNL d   1       3.034   3.392   5.728  0.00  0.00     0.039 A 
ATOM      3  C2  UNL d   1       3.763   4.555   5.985  0.00  0.00    -0.080 A 
ATOM      4  C3  UNL d   1       5.006   4.730   5.384  0.00  0.00     0.150 A 
ATOM      5  C4  UNL d   1       5.527   3.763   4.531  0.00  0.00    -0.007 A 
ATOM      6  C5  UNL d   1       4.799   2.602   4.276  0.00  0.00     0.039 A 
ENDROOT
BRANCH   4   7
ATOM      7  O   UNL d   1       5.756   5.846   5.608  0.00  0.00    -0.526 OA
ATOM      8  H5  UNL d   1       5.282   6.413   6.240  0.00  0.00     0.418 HD
ENDBRANCH   4   7
TORSDOF 1
ENDMDL
