MODEL 1
REMARK minimizedAffinity -4.27264452
REMARK minimizedRMSD -1
REMARK  1 active torsions:
REMARK  status: ('A' for Active; 'I' for Inactive)
REMARK    1  A    between atoms: C3_4  and  O_7 
ROOT
ATOM      1  C   UNL d   1       5.251   4.429   5.255  0.00  0.00    -0.033 A 
ATOM      2  C1  UNL d   1       5.463   3.267   6.000  0.00  0.00     0.039 A 
ATOM      3  C2  UNL d   1       4.504   2.251   5.999  0.00  0.00    -0.080 A 
ATOM      4  C3  UNL d   1       3.342   2.410   5.250  0.00  0.00     0.150 A 
ATOM      5  C4  UNL d   1       3.127   3.563   4.503  0.00  0.00    -0.007 A 
ATOM      6  C5  UNL d   1       4.084   4.577   4.506  0.00  0.00     0.039 A 
ENDROOT
BRANCH   4   7
ATOM      7  O   UNL d   1       2.376   1.448   5.222  0.00  0.00    -0.526 OA
ATOM      8  H5  UNL d   1       2.648   0.721   5.807  0.00  0.00     0.418 HD
ENDBRANCH   4   7
TORSDOF 1
ENDMDL
