MODEL 1
REMARK minimizedAffinity 0.857765675
REMARK minimizedRMSD -1
REMARK  1 active torsions:
REMARK  status: ('A' for Active; 'I' for Inactive)
REMARK    1  A    between atoms: C3_4  and  O_7 
ROOT
ATOM      1  C   UNL d   1       4.879   6.000   5.041  0.00  0.00    -0.033 A 
ATOM      2  C1  UNL d   1       4.164   5.962   3.843  0.00  0.00     0.039 A 
ATOM      3  C2  UNL d   1       3.712   4.742   3.335  0.00  0.00    -0.080 A 
ATOM      4  C3  UNL d   1       3.982   3.569   4.035  0.00  0.00     0.150 A 
ATOM      5  C4  UNL d   1       4.692   3.600   5.231  0.00  0.00    -0.007 A 
ATOM      6  C5  UNL d   1       5.142   4.819   5.735  0.00  0.00     0.039 A 
ENDROOT
BRANCH   4   7
ATOM      7  O   UNL d   1       3.567   2.354   3.576  0.00  0.00    -0.526 OA
ATOM      8  H5  UNL d   1       3.115   2.485   2.726  0.00  0.00     0.418 HD
ENDBRANCH   4   7
TORSDOF 1
ENDMDL
