MODEL 1
REMARK minimizedAffinity -4.84423637
REMARK minimizedRMSD -1
REMARK  1 active torsions:
REMARK  status: ('A' for Active; 'I' for Inactive)
REMARK    1  A    between atoms: C3_4  and  O_7 
ROOT
ATOM      1  C   UNL d   1       2.114   2.121   4.683  0.00  0.00    -0.033 A 
ATOM      2  C1  UNL d   1       2.621   3.291   4.115  0.00  0.00     0.039 A 
ATOM      3  C2  UNL d   1       3.883   3.759   4.487  0.00  0.00    -0.080 A 
ATOM      4  C3  UNL d   1       4.626   3.049   5.426  0.00  0.00     0.150 A 
ATOM      5  C4  UNL d   1       4.128   1.881   5.994  0.00  0.00    -0.007 A 
ATOM      6  C5  UNL d   1       2.867   1.415   5.621  0.00  0.00     0.039 A 
ENDROOT
BRANCH   4   7
ATOM      7  O   UNL d   1       5.860   3.470   5.825  0.00  0.00    -0.526 OA
ATOM      8  H5  UNL d   1       6.061   4.305   5.371  0.00  0.00     0.418 HD
ENDBRANCH   4   7
TORSDOF 1
ENDMDL
