MODEL 1
REMARK minimizedAffinity -3.14935708
REMARK minimizedRMSD -1
REMARK  1 active torsions:
REMARK  status: ('A' for Active; 'I' for Inactive)
REMARK    1  A    between atoms: C3_4  and  O_7 
ROOT
ATOM      1  C   UNL d   1       5.035   4.895   5.553  0.00  0.00    -0.033 A 
ATOM      2  C1  UNL d   1       5.572   3.687   5.103  0.00  0.00     0.039 A 
ATOM      3  C2  UNL d   1       4.790   2.530   5.104  0.00  0.00    -0.080 A 
ATOM      4  C3  UNL d   1       3.475   2.595   5.555  0.00  0.00     0.150 A 
ATOM      5  C4  UNL d   1       2.932   3.796   6.000  0.00  0.00    -0.007 A 
ATOM      6  C5  UNL d   1       3.715   4.950   6.000  0.00  0.00     0.039 A 
ENDROOT
BRANCH   4   7
ATOM      7  O   UNL d   1       2.674   1.492   5.578  0.00  0.00    -0.526 OA
ATOM      8  H5  UNL d   1       3.192   0.730   5.269  0.00  0.00     0.418 HD
ENDBRANCH   4   7
TORSDOF 1
ENDMDL
