MODEL 1
REMARK minimizedAffinity -4.10797405
REMARK minimizedRMSD -1
REMARK  1 active torsions:
REMARK  status: ('A' for Active; 'I' for Inactive)
REMARK    1  A    between atoms: C3_4  and  O_7 
ROOT
ATOM      1  C   UNL d   1       1.894   3.217   4.492  0.00  0.00    -0.033 A 
ATOM      2  C1  UNL d   1       1.618   4.570   4.287  0.00  0.00     0.039 A 
ATOM      3  C2  UNL d   1       2.633   5.519   4.422  0.00  0.00    -0.080 A 
ATOM      4  C3  UNL d   1       3.918   5.102   4.759  0.00  0.00     0.150 A 
ATOM      5  C4  UNL d   1       4.200   3.755   4.961  0.00  0.00    -0.007 A 
ATOM      6  C5  UNL d   1       3.185   2.809   4.827  0.00  0.00     0.039 A 
ENDROOT
BRANCH   4   7
ATOM      7  O   UNL d   1       4.940   5.992   4.906  0.00  0.00    -0.526 OA
ATOM      8  H5  UNL d   1       4.591   6.888   4.765  0.00  0.00     0.418 HD
ENDBRANCH   4   7
TORSDOF 1
ENDMDL
