MODEL 1
REMARK minimizedAffinity -4.32935572
REMARK minimizedRMSD -1
REMARK  1 active torsions:
REMARK  status: ('A' for Active; 'I' for Inactive)
REMARK    1  A    between atoms: C3_4  and  O_7 
ROOT
ATOM      1  C   UNL d   1       1.961   3.583   5.988  0.00  0.00    -0.033 A 
ATOM      2  C1  UNL d   1       1.535   4.897   5.788  0.00  0.00     0.039 A 
ATOM      3  C2  UNL d   1       2.214   5.725   4.892  0.00  0.00    -0.080 A 
ATOM      4  C3  UNL d   1       3.316   5.226   4.202  0.00  0.00     0.150 A 
ATOM      5  C4  UNL d   1       3.744   3.917   4.394  0.00  0.00    -0.007 A 
ATOM      6  C5  UNL d   1       3.065   3.092   5.290  0.00  0.00     0.039 A 
ENDROOT
BRANCH   4   7
ATOM      7  O   UNL d   1       4.014   5.997   3.321  0.00  0.00    -0.526 OA
ATOM      8  H5  UNL d   1       3.622   6.887   3.313  0.00  0.00     0.418 HD
ENDBRANCH   4   7
TORSDOF 1
ENDMDL
