MODEL 1
REMARK minimizedAffinity -0.787634313
REMARK minimizedRMSD -1
REMARK  1 active torsions:
REMARK  status: ('A' for Active; 'I' for Inactive)
REMARK    1  A    between atoms: C3_4  and  O_7 
ROOT
ATOM      1  C   UNL d   1       3.612   2.505   3.856  0.00  0.00    -0.033 A 
ATOM      2  C1  UNL d   1       3.644   2.438   5.250  0.00  0.00     0.039 A 
ATOM      3  C2  UNL d   1       4.191   3.489   5.989  0.00  0.00    -0.080 A 
ATOM      4  C3  UNL d   1       4.701   4.600   5.322  0.00  0.00     0.150 A 
ATOM      5  C4  UNL d   1       4.669   4.674   3.934  0.00  0.00    -0.007 A 
ATOM      6  C5  UNL d   1       4.123   3.623   3.198  0.00  0.00     0.039 A 
ENDROOT
BRANCH   4   7
ATOM      7  O   UNL d   1       5.250   5.648   6.000  0.00  0.00    -0.526 OA
ATOM      8  H5  UNL d   1       5.229   5.444   6.950  0.00  0.00     0.418 HD
ENDBRANCH   4   7
TORSDOF 1
ENDMDL
