MODEL 1
REMARK minimizedAffinity 0.236081704
REMARK minimizedRMSD -1
REMARK  1 active torsions:
REMARK  status: ('A' for Active; 'I' for Inactive)
REMARK    1  A    between atoms: C1_2  and  C2_3 
ROOT
ATOM      1  C2  UNL d   1       5.938   0.840   3.818  0.00  0.00    -0.077 A 
ATOM      2  C3  UNL d   1       5.942  -0.427   3.219  0.00  0.00     0.002 A 
ATOM      3  C4  UNL d   1       5.975  -1.581   4.005  0.00  0.00     0.002 A 
ATOM      4  C5  UNL d   1       6.000  -1.478   5.394  0.00  0.00    -0.004 A 
ATOM      5  C6  UNL d   1       5.999  -0.222   6.000  0.00  0.00     0.002 A 
ATOM      6  C7  UNL d   1       5.967   0.932   5.215  0.00  0.00     0.002 A 
ENDROOT
BRANCH   1   7
ATOM      7  C1  UNL d   1       5.853   2.084   2.973  0.00  0.00     0.055 C 
ATOM      8  C   UNL d   1       4.407   2.499   2.743  0.00  0.00     0.019 C 
ENDBRANCH   1   7
TORSDOF 1
ENDMDL
