MODEL 1
REMARK minimizedAffinity -3.05363965
REMARK minimizedRMSD -1
REMARK  1 active torsions:
REMARK  status: ('A' for Active; 'I' for Inactive)
REMARK    1  A    between atoms: C1_2  and  C2_3 
ROOT
ATOM      1  C2  UNL d   1       5.999   2.342   3.466  0.00  0.00    -0.077 A 
ATOM      2  C3  UNL d   1       6.000   1.126   2.768  0.00  0.00     0.002 A 
ATOM      3  C4  UNL d   1       5.976  -0.086   3.461  0.00  0.00     0.002 A 
ATOM      4  C5  UNL d   1       5.947  -0.093   4.854  0.00  0.00    -0.004 A 
ATOM      5  C6  UNL d   1       5.949   1.111   5.557  0.00  0.00     0.002 A 
ATOM      6  C7  UNL d   1       5.974   2.323   4.866  0.00  0.00     0.002 A 
ENDROOT
BRANCH   1   7
ATOM      7  C1  UNL d   1       5.975   3.650   2.719  0.00  0.00     0.055 C 
ATOM      8  C   UNL d   1       5.905   4.832   3.676  0.00  0.00     0.019 C 
ENDBRANCH   1   7
TORSDOF 1
ENDMDL
