MODEL 1
REMARK minimizedAffinity -3.65867615
REMARK minimizedRMSD -1
REMARK  1 active torsions:
REMARK  status: ('A' for Active; 'I' for Inactive)
REMARK    1  A    between atoms: C1_2  and  C2_3 
ROOT
ATOM      1  C2  UNL d   1       5.599   0.796   4.657  0.00  0.00    -0.077 A 
ATOM      2  C3  UNL d   1       5.762   1.576   5.810  0.00  0.00     0.002 A 
ATOM      3  C4  UNL d   1       5.964   2.954   5.708  0.00  0.00     0.002 A 
ATOM      4  C5  UNL d   1       6.000   3.564   4.455  0.00  0.00    -0.004 A 
ATOM      5  C6  UNL d   1       5.841   2.796   3.303  0.00  0.00     0.002 A 
ATOM      6  C7  UNL d   1       5.640   1.418   3.403  0.00  0.00     0.002 A 
ENDROOT
BRANCH   1   7
ATOM      7  C1  UNL d   1       5.332  -0.682   4.767  0.00  0.00     0.055 C 
ATOM      8  C   UNL d   1       6.000  -1.275   6.000  0.00  0.00     0.019 C 
ENDBRANCH   1   7
TORSDOF 1
ENDMDL
