MODEL 1
REMARK minimizedAffinity -3.36690021
REMARK minimizedRMSD -1
REMARK  1 active torsions:
REMARK  status: ('A' for Active; 'I' for Inactive)
REMARK    1  A    between atoms: C1_2  and  C2_3 
ROOT
ATOM      1  C2  UNL d   1       5.624   1.644   4.030  0.00  0.00    -0.077 A 
ATOM      2  C3  UNL d   1       6.000   1.522   5.375  0.00  0.00     0.002 A 
ATOM      3  C4  UNL d   1       5.996   0.273   5.999  0.00  0.00     0.002 A 
ATOM      4  C5  UNL d   1       5.622  -0.863   5.284  0.00  0.00    -0.004 A 
ATOM      5  C6  UNL d   1       5.245  -0.752   3.947  0.00  0.00     0.002 A 
ATOM      6  C7  UNL d   1       5.247   0.496   3.322  0.00  0.00     0.002 A 
ENDROOT
BRANCH   1   7
ATOM      7  C1  UNL d   1       5.675   2.983   3.341  0.00  0.00     0.055 C 
ATOM      8  C   UNL d   1       5.989   4.100   4.326  0.00  0.00     0.019 C 
ENDBRANCH   1   7
TORSDOF 1
ENDMDL
