MODEL 1
REMARK minimizedAffinity -1.22590959
REMARK minimizedRMSD -1
REMARK  1 active torsions:
REMARK  status: ('A' for Active; 'I' for Inactive)
REMARK    1  A    between atoms: C1_2  and  C2_3 
ROOT
ATOM      1  C2  UNL d   1       5.989   1.171   4.589  0.00  0.00    -0.077 A 
ATOM      2  C3  UNL d   1       5.983   2.572   4.626  0.00  0.00     0.002 A 
ATOM      3  C4  UNL d   1       5.983   3.310   3.440  0.00  0.00     0.002 A 
ATOM      4  C5  UNL d   1       5.984   2.654   2.210  0.00  0.00    -0.004 A 
ATOM      5  C6  UNL d   1       5.992   1.261   2.164  0.00  0.00     0.002 A 
ATOM      6  C7  UNL d   1       5.994   0.522   3.348  0.00  0.00     0.002 A 
ENDROOT
BRANCH   1   7
ATOM      7  C1  UNL d   1       5.940   0.374   5.867  0.00  0.00     0.055 C 
ATOM      8  C   UNL d   1       5.989  -1.121   5.589  0.00  0.00     0.019 C 
ENDBRANCH   1   7
TORSDOF 1
ENDMDL
