MODEL 1
REMARK minimizedAffinity 12.0900068
REMARK minimizedRMSD -1
REMARK  1 active torsions:
REMARK  status: ('A' for Active; 'I' for Inactive)
REMARK    1  A    between atoms: C1_2  and  C2_3 
ROOT
ATOM      1  C2  UNL d   1      -2.639   0.332   4.057  0.00  0.00    -0.077 A 
ATOM      2  C3  UNL d   1      -3.792  -0.254   4.599  0.00  0.00     0.002 A 
ATOM      3  C4  UNL d   1      -4.236  -1.496   4.141  0.00  0.00     0.002 A 
ATOM      4  C5  UNL d   1      -3.531  -2.164   3.142  0.00  0.00    -0.004 A 
ATOM      5  C6  UNL d   1      -2.385  -1.589   2.595  0.00  0.00     0.002 A 
ATOM      6  C7  UNL d   1      -1.940  -0.348   3.051  0.00  0.00     0.002 A 
ENDROOT
BRANCH   1   7
ATOM      7  C1  UNL d   1      -2.131   1.648   4.584  0.00  0.00     0.055 C 
ATOM      8  C   UNL d   1      -2.116   2.711   3.495  0.00  0.00     0.019 C 
ENDBRANCH   1   7
TORSDOF 1
ENDMDL
