MODEL 1
REMARK minimizedAffinity -2.62013173
REMARK minimizedRMSD -1
REMARK  1 active torsions:
REMARK  status: ('A' for Active; 'I' for Inactive)
REMARK    1  A    between atoms: C1_2  and  C2_3 
ROOT
ATOM      1  C2  UNL d   1       5.635   2.329   3.609  0.00  0.00    -0.077 A 
ATOM      2  C3  UNL d   1       5.265   1.934   4.902  0.00  0.00     0.002 A 
ATOM      3  C4  UNL d   1       5.260   0.583   5.254  0.00  0.00     0.002 A 
ATOM      4  C5  UNL d   1       5.628  -0.383   4.320  0.00  0.00    -0.004 A 
ATOM      5  C6  UNL d   1       5.995  -0.001   3.031  0.00  0.00     0.002 A 
ATOM      6  C7  UNL d   1       5.999   1.349   2.677  0.00  0.00     0.002 A 
ENDROOT
BRANCH   1   7
ATOM      7  C1  UNL d   1       5.688   3.789   3.242  0.00  0.00     0.055 C 
ATOM      8  C   UNL d   1       5.625   4.673   4.479  0.00  0.00     0.019 C 
ENDBRANCH   1   7
TORSDOF 1
ENDMDL
