MODEL 1
REMARK minimizedAffinity -0.41366896
REMARK minimizedRMSD -1
REMARK  1 active torsions:
REMARK  status: ('A' for Active; 'I' for Inactive)
REMARK    1  A    between atoms: C1_2  and  C2_3 
ROOT
ATOM      1  C2  UNL d   1       5.962   1.131   3.488  0.00  0.00    -0.077 A 
ATOM      2  C3  UNL d   1       5.947   1.114   4.890  0.00  0.00     0.002 A 
ATOM      3  C4  UNL d   1       5.958  -0.100   5.581  0.00  0.00     0.002 A 
ATOM      4  C5  UNL d   1       5.988  -1.303   4.879  0.00  0.00    -0.004 A 
ATOM      5  C6  UNL d   1       6.000  -1.296   3.485  0.00  0.00     0.002 A 
ATOM      6  C7  UNL d   1       5.988  -0.084   2.792  0.00  0.00     0.002 A 
ENDROOT
BRANCH   1   7
ATOM      7  C1  UNL d   1       6.000   2.439   2.741  0.00  0.00     0.055 C 
ATOM      8  C   UNL d   1       5.658   3.608   3.654  0.00  0.00     0.019 C 
ENDBRANCH   1   7
TORSDOF 1
ENDMDL
