MODEL 1
REMARK minimizedAffinity -3.889925
REMARK minimizedRMSD -1
REMARK  1 active torsions:
REMARK  status: ('A' for Active; 'I' for Inactive)
REMARK    1  A    between atoms: C1_2  and  C2_3 
ROOT
ATOM      1  C2  UNL d   1       5.676  -0.191   4.546  0.00  0.00    -0.077 A 
ATOM      2  C3  UNL d   1       5.798   0.465   3.313  0.00  0.00     0.002 A 
ATOM      3  C4  UNL d   1       5.952   1.852   3.263  0.00  0.00     0.002 A 
ATOM      4  C5  UNL d   1       5.990   2.593   4.441  0.00  0.00    -0.004 A 
ATOM      5  C6  UNL d   1       5.868   1.950   5.673  0.00  0.00     0.002 A 
ATOM      6  C7  UNL d   1       5.713   0.564   5.725  0.00  0.00     0.002 A 
ENDROOT
BRANCH   1   7
ATOM      7  C1  UNL d   1       5.560  -1.692   4.604  0.00  0.00     0.055 C 
ATOM      8  C   UNL d   1       5.861  -2.217   6.000  0.00  0.00     0.019 C 
ENDBRANCH   1   7
TORSDOF 1
ENDMDL
