MODEL 1
REMARK minimizedAffinity -0.417512804
REMARK minimizedRMSD -1
REMARK  1 active torsions:
REMARK  status: ('A' for Active; 'I' for Inactive)
REMARK    1  A    between atoms: C1_2  and  C2_3 
ROOT
ATOM      1  C2  UNL d   1       5.964   3.206   3.079  0.00  0.00    -0.077 A 
ATOM      2  C3  UNL d   1       5.987   4.132   2.027  0.00  0.00     0.002 A 
ATOM      3  C4  UNL d   1       6.000   5.503   2.293  0.00  0.00     0.002 A 
ATOM      4  C5  UNL d   1       5.994   5.959   3.610  0.00  0.00    -0.004 A 
ATOM      5  C6  UNL d   1       5.969   5.045   4.663  0.00  0.00     0.002 A 
ATOM      6  C7  UNL d   1       5.955   3.675   4.399  0.00  0.00     0.002 A 
ENDROOT
BRANCH   1   7
ATOM      7  C1  UNL d   1       6.000   1.727   2.795  0.00  0.00     0.055 C 
ATOM      8  C   UNL d   1       5.951   0.915   4.081  0.00  0.00     0.019 C 
ENDBRANCH   1   7
TORSDOF 1
ENDMDL
