MODEL 1
REMARK minimizedAffinity -2.11989474
REMARK minimizedRMSD -1
REMARK  1 active torsions:
REMARK  status: ('A' for Active; 'I' for Inactive)
REMARK    1  A    between atoms: C1_2  and  C2_3 
ROOT
ATOM      1  C2  UNL d   1       6.000   3.148   3.528  0.00  0.00    -0.077 A 
ATOM      2  C3  UNL d   1       5.987   4.033   4.615  0.00  0.00     0.002 A 
ATOM      3  C4  UNL d   1       5.941   5.412   4.403  0.00  0.00     0.002 A 
ATOM      4  C5  UNL d   1       5.903   5.918   3.105  0.00  0.00    -0.004 A 
ATOM      5  C6  UNL d   1       5.917   5.046   2.017  0.00  0.00     0.002 A 
ATOM      6  C7  UNL d   1       5.965   3.667   2.228  0.00  0.00     0.002 A 
ENDROOT
BRANCH   1   7
ATOM      7  C1  UNL d   1       6.000   1.659   3.756  0.00  0.00     0.055 C 
ATOM      8  C   UNL d   1       5.842   1.325   5.232  0.00  0.00     0.019 C 
ENDBRANCH   1   7
TORSDOF 1
ENDMDL
