MODEL 1
REMARK minimizedAffinity -2.72698402
REMARK minimizedRMSD -1
REMARK  0 active torsions:
REMARK  status: ('A' for Active; 'I' for Inactive)
ROOT
ATOM      1  C   UNL d   1       0.499  -1.026  -0.457  0.00  0.00     0.023 A 
ATOM      2  C1  UNL d   1       1.794  -1.543  -0.412  0.00  0.00     0.003 A 
ATOM      3  C2  UNL d   1       2.003  -2.878  -0.059  0.00  0.00     0.048 A 
ATOM      4  C3  UNL d   1       0.912  -3.690   0.246  0.00  0.00     0.023 A 
ATOM      5  C4  UNL d   1      -0.386  -3.178   0.201  0.00  0.00     0.048 A 
ATOM      6  C5  UNL d   1      -0.589  -1.842  -0.151  0.00  0.00     0.003 A 
ATOM      7  I   UNL d   1       1.219  -5.678   0.772  0.00  0.00    -0.146 I 
ENDROOT
TORSDOF 0
ENDMDL
