MODEL 1
REMARK minimizedAffinity -1.6440233
REMARK minimizedRMSD -1
REMARK  0 active torsions:
REMARK  status: ('A' for Active; 'I' for Inactive)
ROOT
ATOM      1  C   UNL d   1       0.485  -1.324  -0.605  0.00  0.00     0.023 A 
ATOM      2  C1  UNL d   1      -0.570  -1.968   0.041  0.00  0.00     0.003 A 
ATOM      3  C2  UNL d   1      -0.387  -3.244   0.579  0.00  0.00     0.048 A 
ATOM      4  C3  UNL d   1       0.855  -3.868   0.469  0.00  0.00     0.023 A 
ATOM      5  C4  UNL d   1       1.914  -3.227  -0.175  0.00  0.00     0.048 A 
ATOM      6  C5  UNL d   1       1.726  -1.952  -0.712  0.00  0.00     0.003 A 
ATOM      7  I   UNL d   1       1.130  -5.767   1.270  0.00  0.00    -0.146 I 
ENDROOT
TORSDOF 0
ENDMDL
