MODEL 1
REMARK minimizedAffinity 2.8625679
REMARK minimizedRMSD -1
REMARK  0 active torsions:
REMARK  status: ('A' for Active; 'I' for Inactive)
ROOT
ATOM      1  C   UNL d   1       0.590  -1.159   0.272  0.00  0.00     0.023 A 
ATOM      2  C1  UNL d   1       1.533  -0.453  -0.474  0.00  0.00     0.003 A 
ATOM      3  C2  UNL d   1       1.342  -0.263  -1.844  0.00  0.00     0.048 A 
ATOM      4  C3  UNL d   1       0.204  -0.781  -2.462  0.00  0.00     0.023 A 
ATOM      5  C4  UNL d   1      -0.743  -1.488  -1.719  0.00  0.00     0.048 A 
ATOM      6  C5  UNL d   1      -0.547  -1.676  -0.350  0.00  0.00     0.003 A 
ATOM      7  I   UNL d   1      -0.083  -0.499  -4.501  0.00  0.00    -0.146 I 
ENDROOT
TORSDOF 0
ENDMDL
