MODEL 1
REMARK minimizedAffinity -2.18025541
REMARK minimizedRMSD -1
REMARK  0 active torsions:
REMARK  status: ('A' for Active; 'I' for Inactive)
ROOT
ATOM      1  C   UNL d   1       0.547  -4.672   0.600  0.00  0.00     0.023 A 
ATOM      2  C1  UNL d   1       1.870  -4.304   0.357  0.00  0.00     0.003 A 
ATOM      3  C2  UNL d   1       2.157  -3.068  -0.225  0.00  0.00     0.048 A 
ATOM      4  C3  UNL d   1       1.116  -2.204  -0.562  0.00  0.00     0.023 A 
ATOM      5  C4  UNL d   1      -0.210  -2.567  -0.320  0.00  0.00     0.048 A 
ATOM      6  C5  UNL d   1      -0.492  -3.805   0.262  0.00  0.00     0.003 A 
ATOM      7  I   UNL d   1       1.540  -0.363  -1.429  0.00  0.00    -0.146 I 
ENDROOT
TORSDOF 0
ENDMDL
