MODEL 1
REMARK minimizedAffinity 3.24777198
REMARK minimizedRMSD -1
REMARK  0 active torsions:
REMARK  status: ('A' for Active; 'I' for Inactive)
ROOT
ATOM      1  C   UNL d   1       2.294  -1.331   0.247  0.00  0.00     0.023 A 
ATOM      2  C1  UNL d   1       2.384  -2.336  -0.716  0.00  0.00     0.003 A 
ATOM      3  C2  UNL d   1       1.768  -2.173  -1.958  0.00  0.00     0.048 A 
ATOM      4  C3  UNL d   1       1.063  -1.002  -2.232  0.00  0.00     0.023 A 
ATOM      5  C4  UNL d   1       0.971   0.008  -1.272  0.00  0.00     0.048 A 
ATOM      6  C5  UNL d   1       1.588  -0.160  -0.031  0.00  0.00     0.003 A 
ATOM      7  I   UNL d   1       0.145  -0.757  -4.080  0.00  0.00    -0.146 I 
ENDROOT
TORSDOF 0
ENDMDL
