MODEL 1
REMARK minimizedAffinity 7.67832756
REMARK minimizedRMSD -1
REMARK  0 active torsions:
REMARK  status: ('A' for Active; 'I' for Inactive)
ROOT
ATOM      1  C   UNL d   1      -2.521  -0.573   4.868  0.00  0.00     0.023 A 
ATOM      2  C1  UNL d   1      -3.047   0.694   4.619  0.00  0.00     0.003 A 
ATOM      3  C2  UNL d   1      -4.046   0.861   3.657  0.00  0.00     0.048 A 
ATOM      4  C3  UNL d   1      -4.514  -0.245   2.948  0.00  0.00     0.023 A 
ATOM      5  C4  UNL d   1      -3.991  -1.516   3.195  0.00  0.00     0.048 A 
ATOM      6  C5  UNL d   1      -2.992  -1.677   4.157  0.00  0.00     0.003 A 
ATOM      7  I   UNL d   1      -6.000  -0.001   1.516  0.00  0.00    -0.146 I 
ENDROOT
TORSDOF 0
ENDMDL
