MODEL 1
REMARK minimizedAffinity 5.42667723
REMARK minimizedRMSD -1
REMARK  0 active torsions:
REMARK  status: ('A' for Active; 'I' for Inactive)
ROOT
ATOM      1  C   UNL d   1       0.811  -0.690  -0.967  0.00  0.00     0.023 A 
ATOM      2  C1  UNL d   1      -0.278  -1.325  -0.370  0.00  0.00     0.003 A 
ATOM      3  C2  UNL d   1      -0.146  -2.625   0.123  0.00  0.00     0.048 A 
ATOM      4  C3  UNL d   1       1.079  -3.283   0.018  0.00  0.00     0.023 A 
ATOM      5  C4  UNL d   1       2.172  -2.650  -0.577  0.00  0.00     0.048 A 
ATOM      6  C5  UNL d   1       2.035  -1.351  -1.070  0.00  0.00     0.003 A 
ATOM      7  I   UNL d   1       1.279  -5.217   0.752  0.00  0.00    -0.146 I 
ENDROOT
TORSDOF 0
ENDMDL
