MODEL 1
REMARK minimizedAffinity -2.03900123
REMARK minimizedRMSD -1
REMARK  0 active torsions:
REMARK  status: ('A' for Active; 'I' for Inactive)
ROOT
ATOM      1  C   UNL d   1       0.309  -0.431  -0.752  0.00  0.00     0.023 A 
ATOM      2  C1  UNL d   1       1.545  -0.893  -0.301  0.00  0.00     0.003 A 
ATOM      3  C2  UNL d   1       1.687  -2.218   0.118  0.00  0.00     0.048 A 
ATOM      4  C3  UNL d   1       0.588  -3.075   0.081  0.00  0.00     0.023 A 
ATOM      5  C4  UNL d   1      -0.651  -2.617  -0.371  0.00  0.00     0.048 A 
ATOM      6  C5  UNL d   1      -0.788  -1.292  -0.787  0.00  0.00     0.003 A 
ATOM      7  I   UNL d   1       0.795  -5.047   0.703  0.00  0.00    -0.146 I 
ENDROOT
TORSDOF 0
ENDMDL
