MODEL 1
REMARK minimizedAffinity -2.60993409
REMARK minimizedRMSD -1
REMARK  0 active torsions:
REMARK  status: ('A' for Active; 'I' for Inactive)
ROOT
ATOM      1  C   UNL d   1       1.043  -1.323  -0.488  0.00  0.00     0.023 A 
ATOM      2  C1  UNL d   1      -0.082  -1.968   0.027  0.00  0.00     0.003 A 
ATOM      3  C2  UNL d   1       0.012  -3.286   0.478  0.00  0.00     0.048 A 
ATOM      4  C3  UNL d   1       1.235  -3.953   0.412  0.00  0.00     0.023 A 
ATOM      5  C4  UNL d   1       2.363  -3.312  -0.102  0.00  0.00     0.048 A 
ATOM      6  C5  UNL d   1       2.264  -1.994  -0.552  0.00  0.00     0.003 A 
ATOM      7  I   UNL d   1       1.378  -5.915   1.082  0.00  0.00    -0.146 I 
ENDROOT
TORSDOF 0
ENDMDL
