MODEL 1
REMARK minimizedAffinity -1.06277192
REMARK minimizedRMSD -1
REMARK  0 active torsions:
REMARK  status: ('A' for Active; 'I' for Inactive)
ROOT
ATOM      1  C   UNL d   1      -2.483   0.564   5.141  0.00  0.00     0.023 A 
ATOM      2  C1  UNL d   1      -3.755   1.124   5.253  0.00  0.00     0.003 A 
ATOM      3  C2  UNL d   1      -4.766   0.748   4.366  0.00  0.00     0.048 A 
ATOM      4  C3  UNL d   1      -4.497  -0.189   3.369  0.00  0.00     0.023 A 
ATOM      5  C4  UNL d   1      -3.225  -0.753   3.253  0.00  0.00     0.048 A 
ATOM      6  C5  UNL d   1      -2.218  -0.373   4.142  0.00  0.00     0.003 A 
ATOM      7  I   UNL d   1      -6.000  -0.751   2.048  0.00  0.00    -0.146 I 
ENDROOT
TORSDOF 0
ENDMDL
