MODEL 1
REMARK minimizedAffinity -0.924603999
REMARK minimizedRMSD -1
REMARK  0 active torsions:
REMARK  status: ('A' for Active; 'I' for Inactive)
ROOT
ATOM      1  C   UNL d   1      -4.655  -0.436   2.485  0.00  0.00     0.023 A 
ATOM      2  C1  UNL d   1      -5.040  -0.372   1.146  0.00  0.00     0.003 A 
ATOM      3  C2  UNL d   1      -4.638   0.705   0.353  0.00  0.00     0.048 A 
ATOM      4  C3  UNL d   1      -3.850   1.714   0.905  0.00  0.00     0.023 A 
ATOM      5  C4  UNL d   1      -3.462   1.654   2.244  0.00  0.00     0.048 A 
ATOM      6  C5  UNL d   1      -3.867   0.576   3.034  0.00  0.00     0.003 A 
ATOM      7  I   UNL d   1      -3.251   3.318  -0.273  0.00  0.00    -0.146 I 
ENDROOT
TORSDOF 0
ENDMDL
