MODEL 1
REMARK minimizedAffinity 8.82029819
REMARK minimizedRMSD -1
REMARK  1 active torsions:
REMARK  status: ('A' for Active; 'I' for Inactive)
REMARK    1  A    between atoms: C1_2  and  C2_3 
ROOT
ATOM      1  C2  UNL d   1      -2.181  -2.762  -2.849  0.00  0.00    -0.081 A 
ATOM      2  C3  UNL d   1      -2.159  -1.752  -1.878  0.00  0.00     0.006 A 
ATOM      3  C4  UNL d   1      -1.410  -1.910  -0.710  0.00  0.00     0.002 A 
ATOM      4  C5  UNL d   1      -0.664  -3.074  -0.496  0.00  0.00    -0.080 A 
ATOM      5  C6  UNL d   1       0.169  -3.242   0.739  0.00  0.00     0.076 C 
ATOM      6  C7  UNL d   1      -0.699  -4.089  -1.458  0.00  0.00     0.002 A 
ATOM      7  C8  UNL d   1      -1.449  -3.933  -2.626  0.00  0.00     0.006 A 
ENDROOT
BRANCH   1   8
ATOM      8  C1  UNL d   1      -2.936  -2.568  -4.139  0.00  0.00     0.054 C 
ATOM      9  C   UNL d   1      -2.022  -2.728  -5.345  0.00  0.00     0.018 C 
ENDBRANCH   1   8
TORSDOF 1
ENDMDL
