MODEL 1
REMARK minimizedAffinity -0.673770308
REMARK minimizedRMSD -1
REMARK  1 active torsions:
REMARK  status: ('A' for Active; 'I' for Inactive)
REMARK    1  A    between atoms: C1_2  and  C2_3 
ROOT
ATOM      1  C2  UNL d   1       4.905   2.417  -5.941  0.00  0.00    -0.081 A 
ATOM      2  C3  UNL d   1       3.557   2.037  -5.924  0.00  0.00     0.006 A 
ATOM      3  C4  UNL d   1       2.548   3.003  -5.931  0.00  0.00     0.002 A 
ATOM      4  C5  UNL d   1       2.870   4.364  -5.961  0.00  0.00    -0.080 A 
ATOM      5  C6  UNL d   1       1.796   5.411  -5.999  0.00  0.00     0.076 C 
ATOM      6  C7  UNL d   1       4.216   4.745  -5.960  0.00  0.00     0.002 A 
ATOM      7  C8  UNL d   1       5.225   3.779  -5.953  0.00  0.00     0.006 A 
ENDROOT
BRANCH   1   8
ATOM      8  C1  UNL d   1       5.994   1.377  -6.000  0.00  0.00     0.054 C 
ATOM      9  C   UNL d   1       5.994   0.505  -4.753  0.00  0.00     0.018 C 
ENDBRANCH   1   8
TORSDOF 1
ENDMDL
