MODEL 1
REMARK minimizedAffinity 1.23744905
REMARK minimizedRMSD -1
REMARK  1 active torsions:
REMARK  status: ('A' for Active; 'I' for Inactive)
REMARK    1  A    between atoms: C1_2  and  C2_3 
ROOT
ATOM      1  C2  UNL d   1       4.792   1.628  -4.076  0.00  0.00    -0.081 A 
ATOM      2  C3  UNL d   1       4.367   1.917  -5.379  0.00  0.00     0.006 A 
ATOM      3  C4  UNL d   1       4.746   3.109  -6.000  0.00  0.00     0.002 A 
ATOM      4  C5  UNL d   1       5.561   4.029  -5.332  0.00  0.00    -0.080 A 
ATOM      5  C6  UNL d   1       6.000   5.299  -5.998  0.00  0.00     0.076 C 
ATOM      6  C7  UNL d   1       5.972   3.749  -4.024  0.00  0.00     0.002 A 
ATOM      7  C8  UNL d   1       5.593   2.557  -3.403  0.00  0.00     0.006 A 
ENDROOT
BRANCH   1   8
ATOM      8  C1  UNL d   1       4.439   0.314  -3.428  0.00  0.00     0.054 C 
ATOM      9  C   UNL d   1       4.550   0.397  -1.912  0.00  0.00     0.018 C 
ENDBRANCH   1   8
TORSDOF 1
ENDMDL
