MODEL 1
REMARK minimizedAffinity 5.98262644
REMARK minimizedRMSD -1
REMARK  1 active torsions:
REMARK  status: ('A' for Active; 'I' for Inactive)
REMARK    1  A    between atoms: C1_2  and  C2_3 
ROOT
ATOM      1  C2  UNL d   1       4.001   2.120  -0.402  0.00  0.00    -0.081 A 
ATOM      2  C3  UNL d   1       4.255   0.951   0.325  0.00  0.00     0.006 A 
ATOM      3  C4  UNL d   1       3.433   0.591   1.396  0.00  0.00     0.002 A 
ATOM      4  C5  UNL d   1       2.339   1.388   1.751  0.00  0.00    -0.080 A 
ATOM      5  C6  UNL d   1       1.431   0.996   2.879  0.00  0.00     0.076 C 
ATOM      6  C7  UNL d   1       2.096   2.565   1.035  0.00  0.00     0.002 A 
ATOM      7  C8  UNL d   1       2.918   2.926  -0.034  0.00  0.00     0.006 A 
ENDROOT
BRANCH   1   8
ATOM      8  C1  UNL d   1       4.846   2.478  -1.597  0.00  0.00     0.054 C 
ATOM      9  C   UNL d   1       5.997   1.498  -1.774  0.00  0.00     0.018 C 
ENDBRANCH   1   8
TORSDOF 1
ENDMDL
