MODEL 1
REMARK minimizedAffinity 8.18014336
REMARK minimizedRMSD -1
REMARK  1 active torsions:
REMARK  status: ('A' for Active; 'I' for Inactive)
REMARK    1  A    between atoms: C1_2  and  C2_3 
ROOT
ATOM      1  C2  UNL d   1      -0.949  -4.995   3.163  0.00  0.00    -0.081 A 
ATOM      2  C3  UNL d   1      -1.186  -3.619   3.277  0.00  0.00     0.006 A 
ATOM      3  C4  UNL d   1      -0.767  -2.743   2.273  0.00  0.00     0.002 A 
ATOM      4  C5  UNL d   1      -0.111  -3.228   1.136  0.00  0.00    -0.080 A 
ATOM      5  C6  UNL d   1       0.317  -2.301   0.036  0.00  0.00     0.076 C 
ATOM      6  C7  UNL d   1       0.141  -4.600   1.030  0.00  0.00     0.002 A 
ATOM      7  C8  UNL d   1      -0.277  -5.476   2.034  0.00  0.00     0.006 A 
ENDROOT
BRANCH   1   8
ATOM      8  C1  UNL d   1      -1.456  -5.949   4.213  0.00  0.00     0.054 C 
ATOM      9  C   UNL d   1      -2.978  -5.998   4.228  0.00  0.00     0.018 C 
ENDBRANCH   1   8
TORSDOF 1
ENDMDL
