MODEL 1
REMARK minimizedAffinity 5.027596
REMARK minimizedRMSD -1
REMARK  1 active torsions:
REMARK  status: ('A' for Active; 'I' for Inactive)
REMARK    1  A    between atoms: C1_2  and  C2_3 
ROOT
ATOM      1  C2  UNL d   1      -1.733  -3.204  -2.873  0.00  0.00    -0.081 A 
ATOM      2  C3  UNL d   1      -0.876  -3.996  -2.098  0.00  0.00     0.006 A 
ATOM      3  C4  UNL d   1      -0.492  -3.583  -0.820  0.00  0.00     0.002 A 
ATOM      4  C5  UNL d   1      -0.964  -2.375  -0.293  0.00  0.00    -0.080 A 
ATOM      5  C6  UNL d   1      -0.583  -1.935   1.090  0.00  0.00     0.076 C 
ATOM      6  C7  UNL d   1      -1.805  -1.576  -1.074  0.00  0.00     0.002 A 
ATOM      7  C8  UNL d   1      -2.189  -1.988  -2.352  0.00  0.00     0.006 A 
ENDROOT
BRANCH   1   8
ATOM      8  C1  UNL d   1      -2.200  -3.678  -4.225  0.00  0.00     0.054 C 
ATOM      9  C   UNL d   1      -1.700  -2.763  -5.335  0.00  0.00     0.018 C 
ENDBRANCH   1   8
TORSDOF 1
ENDMDL
