MODEL 1
REMARK minimizedAffinity 12.6777067
REMARK minimizedRMSD -1
REMARK  1 active torsions:
REMARK  status: ('A' for Active; 'I' for Inactive)
REMARK    1  A    between atoms: C1_2  and  C2_3 
ROOT
ATOM      1  C2  UNL d   1      -1.478  -2.283   1.882  0.00  0.00    -0.081 A 
ATOM      2  C3  UNL d   1      -2.606  -1.856   1.170  0.00  0.00     0.006 A 
ATOM      3  C4  UNL d   1      -2.611  -1.875  -0.226  0.00  0.00     0.002 A 
ATOM      4  C5  UNL d   1      -1.492  -2.329  -0.934  0.00  0.00    -0.080 A 
ATOM      5  C6  UNL d   1      -1.496  -2.383  -2.433  0.00  0.00     0.076 C 
ATOM      6  C7  UNL d   1      -0.359  -2.739  -0.223  0.00  0.00     0.002 A 
ATOM      7  C8  UNL d   1      -0.354  -2.719   1.173  0.00  0.00     0.006 A 
ENDROOT
BRANCH   1   8
ATOM      8  C1  UNL d   1      -1.494  -2.325   3.389  0.00  0.00     0.054 C 
ATOM      9  C   UNL d   1      -2.210  -1.114   3.969  0.00  0.00     0.018 C 
ENDBRANCH   1   8
TORSDOF 1
ENDMDL
