MODEL 1
REMARK minimizedAffinity 12.5139246
REMARK minimizedRMSD -1
REMARK  1 active torsions:
REMARK  status: ('A' for Active; 'I' for Inactive)
REMARK    1  A    between atoms: C1_2  and  C2_3 
ROOT
ATOM      1  C2  UNL d   1      -2.538  -2.742  -3.564  0.00  0.00    -0.081 A 
ATOM      2  C3  UNL d   1      -2.810  -1.636  -2.749  0.00  0.00     0.006 A 
ATOM      3  C4  UNL d   1      -2.238  -1.535  -1.478  0.00  0.00     0.002 A 
ATOM      4  C5  UNL d   1      -1.379  -2.533  -1.005  0.00  0.00    -0.080 A 
ATOM      5  C6  UNL d   1      -0.735  -2.422   0.345  0.00  0.00     0.076 C 
ATOM      6  C7  UNL d   1      -1.121  -3.646  -1.813  0.00  0.00     0.002 A 
ATOM      7  C8  UNL d   1      -1.693  -3.748  -3.083  0.00  0.00     0.006 A 
ENDROOT
BRANCH   1   8
ATOM      8  C1  UNL d   1      -3.101  -2.822  -4.960  0.00  0.00     0.054 C 
ATOM      9  C   UNL d   1      -1.993  -2.912  -6.000  0.00  0.00     0.018 C 
ENDBRANCH   1   8
TORSDOF 1
ENDMDL
