MODEL 1
REMARK minimizedAffinity 9.42052746
REMARK minimizedRMSD -1
REMARK  1 active torsions:
REMARK  status: ('A' for Active; 'I' for Inactive)
REMARK    1  A    between atoms: C1_2  and  C2_3 
ROOT
ATOM      1  C2  UNL d   1      -1.167  -2.317   1.516  0.00  0.00    -0.081 A 
ATOM      2  C3  UNL d   1      -2.264  -1.759   0.848  0.00  0.00     0.006 A 
ATOM      3  C4  UNL d   1      -2.301  -1.725  -0.548  0.00  0.00     0.002 A 
ATOM      4  C5  UNL d   1      -1.247  -2.256  -1.299  0.00  0.00    -0.080 A 
ATOM      5  C6  UNL d   1      -1.288  -2.253  -2.798  0.00  0.00     0.076 C 
ATOM      6  C7  UNL d   1      -0.143  -2.798  -0.632  0.00  0.00     0.002 A 
ATOM      7  C8  UNL d   1      -0.105  -2.831   0.764  0.00  0.00     0.006 A 
ENDROOT
BRANCH   1   8
ATOM      8  C1  UNL d   1      -1.153  -2.414   3.020  0.00  0.00     0.054 C 
ATOM      9  C   UNL d   1      -1.443  -3.833   3.486  0.00  0.00     0.018 C 
ENDBRANCH   1   8
TORSDOF 1
ENDMDL
