MODEL 1
REMARK minimizedAffinity 13.6646757
REMARK minimizedRMSD -1
REMARK  1 active torsions:
REMARK  status: ('A' for Active; 'I' for Inactive)
REMARK    1  A    between atoms: C1_2  and  C2_3 
ROOT
ATOM      1  C2  UNL d   1       0.348   2.923   2.008  0.00  0.00    -0.081 A 
ATOM      2  C3  UNL d   1       1.467   3.197   1.212  0.00  0.00     0.006 A 
ATOM      3  C4  UNL d   1       2.481   2.247   1.066  0.00  0.00     0.002 A 
ATOM      4  C5  UNL d   1       2.390   1.006   1.704  0.00  0.00    -0.080 A 
ATOM      5  C6  UNL d   1       3.457  -0.033   1.531  0.00  0.00     0.076 C 
ATOM      6  C7  UNL d   1       1.280   0.739   2.513  0.00  0.00     0.002 A 
ATOM      7  C8  UNL d   1       0.266   1.688   2.661  0.00  0.00     0.006 A 
ENDROOT
BRANCH   1   8
ATOM      8  C1  UNL d   1      -0.778   3.919   2.117  0.00  0.00     0.054 C 
ATOM      9  C   UNL d   1      -2.055   3.258   2.614  0.00  0.00     0.018 C 
ENDBRANCH   1   8
TORSDOF 1
ENDMDL
