MODEL 1
REMARK minimizedAffinity 8.29221821
REMARK minimizedRMSD -1
REMARK  1 active torsions:
REMARK  status: ('A' for Active; 'I' for Inactive)
REMARK    1  A    between atoms: C1_2  and  C2_3 
ROOT
ATOM      1  C2  UNL d   1      -2.155  -3.377  -3.534  0.00  0.00    -0.081 A 
ATOM      2  C3  UNL d   1      -2.444  -2.104  -3.027  0.00  0.00     0.006 A 
ATOM      3  C4  UNL d   1      -1.940  -1.705  -1.787  0.00  0.00     0.002 A 
ATOM      4  C5  UNL d   1      -1.133  -2.567  -1.038  0.00  0.00    -0.080 A 
ATOM      5  C6  UNL d   1      -0.560  -2.140   0.281  0.00  0.00     0.076 C 
ATOM      6  C7  UNL d   1      -0.858  -3.845  -1.536  0.00  0.00     0.002 A 
ATOM      7  C8  UNL d   1      -1.362  -4.245  -2.776  0.00  0.00     0.006 A 
ENDROOT
BRANCH   1   8
ATOM      8  C1  UNL d   1      -2.644  -3.786  -4.900  0.00  0.00     0.054 C 
ATOM      9  C   UNL d   1      -1.902  -3.040  -6.000  0.00  0.00     0.018 C 
ENDBRANCH   1   8
TORSDOF 1
ENDMDL
