MODEL 1
REMARK minimizedAffinity 7.31217861
REMARK minimizedRMSD -1
REMARK  1 active torsions:
REMARK  status: ('A' for Active; 'I' for Inactive)
REMARK    1  A    between atoms: C1_2  and  C2_3 
ROOT
ATOM      1  C2  UNL d   1       1.419   4.691   0.506  0.00  0.00    -0.081 A 
ATOM      2  C3  UNL d   1       1.143   4.306  -0.812  0.00  0.00     0.006 A 
ATOM      3  C4  UNL d   1      -0.127   4.512  -1.358  0.00  0.00     0.002 A 
ATOM      4  C5  UNL d   1      -1.137   5.112  -0.599  0.00  0.00    -0.080 A 
ATOM      5  C6  UNL d   1      -2.495   5.367  -1.183  0.00  0.00     0.076 C 
ATOM      6  C7  UNL d   1      -0.866   5.481   0.723  0.00  0.00     0.002 A 
ATOM      7  C8  UNL d   1       0.403   5.275   1.270  0.00  0.00     0.006 A 
ENDROOT
BRANCH   1   8
ATOM      8  C1  UNL d   1       2.805   4.529   1.076  0.00  0.00     0.054 C 
ATOM      9  C   UNL d   1       3.315   5.835   1.669  0.00  0.00     0.018 C 
ENDBRANCH   1   8
TORSDOF 1
ENDMDL
