MODEL 1
REMARK minimizedAffinity 7.01806641
REMARK minimizedRMSD -1
REMARK  1 active torsions:
REMARK  status: ('A' for Active; 'I' for Inactive)
REMARK    1  A    between atoms: C1_2  and  C2_3 
ROOT
ATOM      1  C2  UNL d   1       5.037  -1.597  -4.907  0.00  0.00    -0.081 A 
ATOM      2  C3  UNL d   1       5.368  -2.841  -4.357  0.00  0.00     0.006 A 
ATOM      3  C4  UNL d   1       4.586  -3.966  -4.631  0.00  0.00     0.002 A 
ATOM      4  C5  UNL d   1       3.467  -3.867  -5.464  0.00  0.00    -0.080 A 
ATOM      5  C6  UNL d   1       2.637  -5.073  -5.790  0.00  0.00     0.076 C 
ATOM      6  C7  UNL d   1       3.127  -2.620  -6.000  0.00  0.00     0.002 A 
ATOM      7  C8  UNL d   1       3.907  -1.495  -5.726  0.00  0.00     0.006 A 
ENDROOT
BRANCH   1   8
ATOM      8  C1  UNL d   1       5.915  -0.395  -4.666  0.00  0.00     0.054 C 
ATOM      9  C   UNL d   1       5.757   0.637  -5.774  0.00  0.00     0.018 C 
ENDBRANCH   1   8
TORSDOF 1
ENDMDL
