MODEL 1
REMARK minimizedAffinity 5.49138784
REMARK minimizedRMSD -1
REMARK  1 active torsions:
REMARK  status: ('A' for Active; 'I' for Inactive)
REMARK    1  A    between atoms: C1_2  and  C2_3 
ROOT
ATOM      1  C2  UNL d   1      -1.138  -2.431  -2.043  0.00  0.00    -0.081 A 
ATOM      2  C3  UNL d   1      -1.522  -3.755  -2.289  0.00  0.00     0.006 A 
ATOM      3  C4  UNL d   1      -1.936  -4.146  -3.565  0.00  0.00     0.002 A 
ATOM      4  C5  UNL d   1      -1.964  -3.224  -4.616  0.00  0.00    -0.080 A 
ATOM      5  C6  UNL d   1      -2.377  -3.638  -5.997  0.00  0.00     0.076 C 
ATOM      6  C7  UNL d   1      -1.597  -1.897  -4.366  0.00  0.00     0.002 A 
ATOM      7  C8  UNL d   1      -1.184  -1.505  -3.090  0.00  0.00     0.006 A 
ENDROOT
BRANCH   1   8
ATOM      8  C1  UNL d   1      -0.630  -2.021  -0.684  0.00  0.00     0.054 C 
ATOM      9  C   UNL d   1       0.432  -2.985  -0.176  0.00  0.00     0.018 C 
ENDBRANCH   1   8
TORSDOF 1
ENDMDL
