MODEL 1
REMARK minimizedAffinity 4.79556608
REMARK minimizedRMSD -1
REMARK  0 active torsions:
REMARK  status: ('A' for Active; 'I' for Inactive)
ROOT
ATOM      1  O1  BZF d   1      -1.954  -2.187   5.565  0.00  0.00    -0.204 OA
ATOM      2  C2  BZF d   1      -2.565  -3.285   4.991  0.00  0.00     0.174 A 
ATOM      3  C3  BZF d   1      -2.037  -3.545   3.777  0.00  0.00    -0.012 A 
ATOM      4  C3A BZF d   1      -0.972  -2.604   3.620  0.00  0.00    -0.107 A 
ATOM      5  C4  BZF d   1      -0.062  -2.372   2.628  0.00  0.00     0.055 A 
ATOM      6  C5  BZF d   1       0.799  -1.328   2.752  0.00  0.00    -0.016 A 
ATOM      7  C6  BZF d   1       0.776  -0.494   3.850  0.00  0.00     0.022 A 
ATOM      8  C7  BZF d   1      -0.105  -0.688   4.863  0.00  0.00     0.029 A 
ATOM      9  C7A BZF d   1      -0.954  -1.761   4.755  0.00  0.00     0.058 A 
ENDROOT
TORSDOF 0
ENDMDL
