MODEL 1
REMARK minimizedAffinity 11.4674559
REMARK minimizedRMSD -1
REMARK  0 active torsions:
REMARK  status: ('A' for Active; 'I' for Inactive)
ROOT
ATOM      1  O1  BZF d   1       1.500  -4.979   1.826  0.00  0.00    -0.204 OA
ATOM      2  C2  BZF d   1       1.531  -6.000   2.756  0.00  0.00     0.174 A 
ATOM      3  C3  BZF d   1       0.695  -5.737   3.782  0.00  0.00    -0.012 A 
ATOM      4  C3A BZF d   1       0.036  -4.518   3.427  0.00  0.00    -0.107 A 
ATOM      5  C4  BZF d   1      -0.920  -3.755   4.036  0.00  0.00     0.055 A 
ATOM      6  C5  BZF d   1      -1.295  -2.583   3.461  0.00  0.00    -0.016 A 
ATOM      7  C6  BZF d   1      -0.733  -2.140   2.282  0.00  0.00     0.022 A 
ATOM      8  C7  BZF d   1       0.215  -2.864   1.638  0.00  0.00     0.029 A 
ATOM      9  C7A BZF d   1       0.573  -4.065   2.200  0.00  0.00     0.058 A 
ENDROOT
TORSDOF 0
ENDMDL
