MODEL 1
REMARK minimizedAffinity 5.22556257
REMARK minimizedRMSD -1
REMARK  0 active torsions:
REMARK  status: ('A' for Active; 'I' for Inactive)
ROOT
ATOM      1  O1  BZF d   1      -1.485  -1.120   4.857  0.00  0.00    -0.204 OA
ATOM      2  C2  BZF d   1      -0.693  -0.402   5.731  0.00  0.00     0.174 A 
ATOM      3  C3  BZF d   1       0.573  -0.320   5.273  0.00  0.00    -0.012 A 
ATOM      4  C3A BZF d   1       0.550  -0.953   3.990  0.00  0.00    -0.107 A 
ATOM      5  C4  BZF d   1       1.501  -1.174   3.036  0.00  0.00     0.055 A 
ATOM      6  C5  BZF d   1       1.171  -1.887   1.927  0.00  0.00    -0.016 A 
ATOM      7  C6  BZF d   1      -0.098  -2.397   1.743  0.00  0.00     0.022 A 
ATOM      8  C7  BZF d   1      -1.076  -2.200   2.660  0.00  0.00     0.029 A 
ATOM      9  C7A BZF d   1      -0.754  -1.452   3.766  0.00  0.00     0.058 A 
ENDROOT
TORSDOF 0
ENDMDL
