MODEL 1
REMARK minimizedAffinity 18.5034523
REMARK minimizedRMSD -1
REMARK  0 active torsions:
REMARK  status: ('A' for Active; 'I' for Inactive)
ROOT
ATOM      1  O1  BZF d   1      -4.806  -4.878  -0.557  0.00  0.00    -0.204 OA
ATOM      2  C2  BZF d   1      -3.973  -5.964  -0.744  0.00  0.00     0.174 A 
ATOM      3  C3  BZF d   1      -3.013  -5.999   0.203  0.00  0.00    -0.012 A 
ATOM      4  C3A BZF d   1      -3.317  -4.917   1.087  0.00  0.00    -0.107 A 
ATOM      5  C4  BZF d   1      -2.737  -4.447   2.231  0.00  0.00     0.055 A 
ATOM      6  C5  BZF d   1      -3.237  -3.326   2.813  0.00  0.00    -0.016 A 
ATOM      7  C6  BZF d   1      -4.312  -2.647   2.277  0.00  0.00     0.022 A 
ATOM      8  C7  BZF d   1      -4.925  -3.078   1.148  0.00  0.00     0.029 A 
ATOM      9  C7A BZF d   1      -4.442  -4.229   0.575  0.00  0.00     0.058 A 
ENDROOT
TORSDOF 0
ENDMDL
