MODEL 1
REMARK minimizedAffinity 2.22220445
REMARK minimizedRMSD -1
REMARK  0 active torsions:
REMARK  status: ('A' for Active; 'I' for Inactive)
ROOT
ATOM      1  O1  BZF d   1       0.188   0.124   4.820  0.00  0.00    -0.204 OA
ATOM      2  C2  BZF d   1      -0.418  -0.689   5.758  0.00  0.00     0.174 A 
ATOM      3  C3  BZF d   1      -0.695  -1.900   5.234  0.00  0.00    -0.012 A 
ATOM      4  C3A BZF d   1      -0.149  -1.872   3.912  0.00  0.00    -0.107 A 
ATOM      5  C4  BZF d   1      -0.091  -2.787   2.900  0.00  0.00     0.055 A 
ATOM      6  C5  BZF d   1       0.447  -2.421   1.707  0.00  0.00    -0.016 A 
ATOM      7  C6  BZF d   1       0.932  -1.147   1.491  0.00  0.00     0.022 A 
ATOM      8  C7  BZF d   1       0.902  -0.207   2.466  0.00  0.00     0.029 A 
ATOM      9  C7A BZF d   1       0.388  -0.584   3.682  0.00  0.00     0.058 A 
ENDROOT
TORSDOF 0
ENDMDL
