MODEL 1
REMARK minimizedAffinity 10.6653519
REMARK minimizedRMSD -1
REMARK  0 active torsions:
REMARK  status: ('A' for Active; 'I' for Inactive)
ROOT
ATOM      1  O1  BZF d   1       1.001  -0.053   5.074  0.00  0.00    -0.204 OA
ATOM      2  C2  BZF d   1       0.041  -0.413   6.000  0.00  0.00     0.174 A 
ATOM      3  C3  BZF d   1      -0.864  -1.248   5.450  0.00  0.00    -0.012 A 
ATOM      4  C3A BZF d   1      -0.392  -1.494   4.122  0.00  0.00    -0.107 A 
ATOM      5  C4  BZF d   1      -0.854  -2.256   3.088  0.00  0.00     0.055 A 
ATOM      6  C5  BZF d   1      -0.199  -2.221   1.898  0.00  0.00    -0.016 A 
ATOM      7  C6  BZF d   1       0.916  -1.432   1.705  0.00  0.00     0.022 A 
ATOM      8  C7  BZF d   1       1.414  -0.662   2.703  0.00  0.00     0.029 A 
ATOM      9  C7A BZF d   1       0.774  -0.720   3.917  0.00  0.00     0.058 A 
ENDROOT
TORSDOF 0
ENDMDL
