MODEL 1
REMARK minimizedAffinity 14.5192108
REMARK minimizedRMSD -1
REMARK  0 active torsions:
REMARK  status: ('A' for Active; 'I' for Inactive)
ROOT
ATOM      1  O1  BZF d   1      -2.144  -2.055   4.090  0.00  0.00    -0.204 OA
ATOM      2  C2  BZF d   1      -2.666  -3.094   3.343  0.00  0.00     0.174 A 
ATOM      3  C3  BZF d   1      -1.972  -3.255   2.198  0.00  0.00    -0.012 A 
ATOM      4  C3A BZF d   1      -0.896  -2.316   2.274  0.00  0.00    -0.107 A 
ATOM      5  C4  BZF d   1       0.144  -2.010   1.444  0.00  0.00     0.055 A 
ATOM      6  C5  BZF d   1       0.978  -0.990   1.778  0.00  0.00    -0.016 A 
ATOM      7  C6  BZF d   1       0.798  -0.253   2.930  0.00  0.00     0.022 A 
ATOM      8  C7  BZF d   1      -0.216  -0.522   3.787  0.00  0.00     0.029 A 
ATOM      9  C7A BZF d   1      -1.041  -1.573   3.469  0.00  0.00     0.058 A 
ENDROOT
TORSDOF 0
ENDMDL
