MODEL 1
REMARK minimizedAffinity 7.7897253
REMARK minimizedRMSD -1
REMARK  0 active torsions:
REMARK  status: ('A' for Active; 'I' for Inactive)
ROOT
ATOM      1  O1  BZF d   1      -3.299   3.125  -2.981  0.00  0.00    -0.204 OA
ATOM      2  C2  BZF d   1      -4.101   2.453  -2.079  0.00  0.00     0.174 A 
ATOM      3  C3  BZF d   1      -3.366   1.950  -1.067  0.00  0.00    -0.012 A 
ATOM      4  C3A BZF d   1      -2.032   2.410  -1.306  0.00  0.00    -0.107 A 
ATOM      5  C4  BZF d   1      -0.851   2.255  -0.638  0.00  0.00     0.055 A 
ATOM      6  C5  BZF d   1       0.285   2.771  -1.176  0.00  0.00    -0.016 A 
ATOM      7  C6  BZF d   1       0.277   3.444  -2.380  0.00  0.00     0.022 A 
ATOM      8  C7  BZF d   1      -0.871   3.628  -3.077  0.00  0.00     0.029 A 
ATOM      9  C7A BZF d   1      -2.026   3.136  -2.520  0.00  0.00     0.058 A 
ENDROOT
TORSDOF 0
ENDMDL
