MODEL 1
REMARK minimizedAffinity 14.6279335
REMARK minimizedRMSD -1
REMARK  0 active torsions:
REMARK  status: ('A' for Active; 'I' for Inactive)
ROOT
ATOM      1  O1  BZF d   1       0.747   0.133   5.421  0.00  0.00    -0.204 OA
ATOM      2  C2  BZF d   1      -0.380  -0.391   4.818  0.00  0.00     0.174 A 
ATOM      3  C3  BZF d   1      -0.179  -0.564   3.496  0.00  0.00    -0.012 A 
ATOM      4  C3A BZF d   1       1.188  -0.207   3.273  0.00  0.00    -0.107 A 
ATOM      5  C4  BZF d   1       1.984  -0.186   2.164  0.00  0.00     0.055 A 
ATOM      6  C5  BZF d   1       3.255   0.285   2.271  0.00  0.00    -0.016 A 
ATOM      7  C6  BZF d   1       3.759   0.747   3.469  0.00  0.00     0.022 A 
ATOM      8  C7  BZF d   1       3.009   0.741   4.598  0.00  0.00     0.029 A 
ATOM      9  C7A BZF d   1       1.736   0.235   4.500  0.00  0.00     0.058 A 
ENDROOT
TORSDOF 0
ENDMDL
