MODEL 1
REMARK minimizedAffinity 17.1627865
REMARK minimizedRMSD -1
REMARK  0 active torsions:
REMARK  status: ('A' for Active; 'I' for Inactive)
ROOT
ATOM      1  O1  BZF d   1       0.226  -0.701   2.629  0.00  0.00    -0.204 OA
ATOM      2  C2  BZF d   1      -0.623  -1.457   1.843  0.00  0.00     0.174 A 
ATOM      3  C3  BZF d   1       0.067  -2.120   0.893  0.00  0.00    -0.012 A 
ATOM      4  C3A BZF d   1       1.443  -1.828   1.156  0.00  0.00    -0.107 A 
ATOM      5  C4  BZF d   1       2.613  -2.209   0.563  0.00  0.00     0.055 A 
ATOM      6  C5  BZF d   1       3.784  -1.688   1.017  0.00  0.00    -0.016 A 
ATOM      7  C6  BZF d   1       3.820  -0.782   2.057  0.00  0.00     0.022 A 
ATOM      8  C7  BZF d   1       2.686  -0.378   2.679  0.00  0.00     0.029 A 
ATOM      9  C7A BZF d   1       1.505  -0.928   2.244  0.00  0.00     0.058 A 
ENDROOT
TORSDOF 0
ENDMDL
