MODEL 1
REMARK minimizedAffinity 12.5940542
REMARK minimizedRMSD -1
REMARK  0 active torsions:
REMARK  status: ('A' for Active; 'I' for Inactive)
ROOT
ATOM      1  O1  BZF d   1       2.612  -1.553   1.845  0.00  0.00    -0.204 OA
ATOM      2  C2  BZF d   1       2.041  -0.295   1.809  0.00  0.00     0.174 A 
ATOM      3  C3  BZF d   1       0.703  -0.381   1.663  0.00  0.00    -0.012 A 
ATOM      4  C3A BZF d   1       0.410  -1.781   1.697  0.00  0.00    -0.107 A 
ATOM      5  C4  BZF d   1      -0.749  -2.499   1.617  0.00  0.00     0.055 A 
ATOM      6  C5  BZF d   1      -0.685  -3.857   1.609  0.00  0.00    -0.016 A 
ATOM      7  C6  BZF d   1       0.519  -4.527   1.674  0.00  0.00     0.022 A 
ATOM      8  C7  BZF d   1       1.694  -3.858   1.760  0.00  0.00     0.029 A 
ATOM      9  C7A BZF d   1       1.631  -2.486   1.802  0.00  0.00     0.058 A 
ENDROOT
TORSDOF 0
ENDMDL
