MODEL 1
REMARK minimizedAffinity 22.6196518
REMARK minimizedRMSD -1
REMARK  0 active torsions:
REMARK  status: ('A' for Active; 'I' for Inactive)
ROOT
ATOM      1  O1  BZF d   1      -1.918   2.156  -3.395  0.00  0.00    -0.204 OA
ATOM      2  C2  BZF d   1      -1.412   2.156  -2.109  0.00  0.00     0.174 A 
ATOM      3  C3  BZF d   1      -0.902   3.364  -1.796  0.00  0.00    -0.012 A 
ATOM      4  C3A BZF d   1      -1.184   4.196  -2.925  0.00  0.00    -0.107 A 
ATOM      5  C4  BZF d   1      -0.939   5.510  -3.208  0.00  0.00     0.055 A 
ATOM      6  C5  BZF d   1      -1.278   5.996  -4.431  0.00  0.00    -0.016 A 
ATOM      7  C6  BZF d   1      -1.858   5.198  -5.395  0.00  0.00     0.022 A 
ATOM      8  C7  BZF d   1      -2.124   3.890  -5.159  0.00  0.00     0.029 A 
ATOM      9  C7A BZF d   1      -1.813   3.404  -3.913  0.00  0.00     0.058 A 
ENDROOT
TORSDOF 0
ENDMDL
