MODEL 1
REMARK minimizedAffinity 16.7107372
REMARK minimizedRMSD -1
REMARK  0 active torsions:
REMARK  status: ('A' for Active; 'I' for Inactive)
ROOT
ATOM      1  O1  BZF d   1      -4.320   5.329  -1.107  0.00  0.00    -0.204 OA
ATOM      2  C2  BZF d   1      -4.867   4.113  -0.746  0.00  0.00     0.174 A 
ATOM      3  C3  BZF d   1      -4.273   3.103  -1.415  0.00  0.00    -0.012 A 
ATOM      4  C3A BZF d   1      -3.231   3.719  -2.178  0.00  0.00    -0.107 A 
ATOM      5  C4  BZF d   1      -2.282   3.236  -3.033  0.00  0.00     0.055 A 
ATOM      6  C5  BZF d   1      -1.461   4.111  -3.671  0.00  0.00    -0.016 A 
ATOM      7  C6  BZF d   1      -1.564   5.474  -3.482  0.00  0.00     0.022 A 
ATOM      8  C7  BZF d   1      -2.487   6.000  -2.640  0.00  0.00     0.029 A 
ATOM      9  C7A BZF d   1      -3.296   5.116  -1.969  0.00  0.00     0.058 A 
ENDROOT
TORSDOF 0
ENDMDL
