MODEL 1
REMARK minimizedAffinity 20.5639114
REMARK minimizedRMSD -1
REMARK  0 active torsions:
REMARK  status: ('A' for Active; 'I' for Inactive)
ROOT
ATOM      1  O1  BZF d   1      -3.680   1.153  -3.273  0.00  0.00    -0.204 OA
ATOM      2  C2  BZF d   1      -4.952   0.944  -2.774  0.00  0.00     0.174 A 
ATOM      3  C3  BZF d   1      -5.385   2.027  -2.098  0.00  0.00    -0.012 A 
ATOM      4  C3A BZF d   1      -4.355   3.007  -2.259  0.00  0.00    -0.107 A 
ATOM      5  C4  BZF d   1      -4.210   4.296  -1.831  0.00  0.00     0.055 A 
ATOM      6  C5  BZF d   1      -3.051   4.954  -2.096  0.00  0.00    -0.016 A 
ATOM      7  C6  BZF d   1      -2.015   4.353  -2.781  0.00  0.00     0.022 A 
ATOM      8  C7  BZF d   1      -2.114   3.078  -3.229  0.00  0.00     0.029 A 
ATOM      9  C7A BZF d   1      -3.297   2.421  -2.992  0.00  0.00     0.058 A 
ENDROOT
TORSDOF 0
ENDMDL
