MODEL 1
REMARK minimizedAffinity 5.87913179
REMARK minimizedRMSD -1
REMARK  0 active torsions:
REMARK  status: ('A' for Active; 'I' for Inactive)
ROOT
ATOM      1  O1  BZF d   1      -3.035  -5.058  -0.757  0.00  0.00    -0.204 OA
ATOM      2  C2  BZF d   1      -4.013  -5.994  -1.035  0.00  0.00     0.174 A 
ATOM      3  C3  BZF d   1      -4.964  -5.990  -0.079  0.00  0.00    -0.012 A 
ATOM      4  C3A BZF d   1      -4.603  -4.926   0.806  0.00  0.00    -0.107 A 
ATOM      5  C4  BZF d   1      -5.168  -4.416   1.941  0.00  0.00     0.055 A 
ATOM      6  C5  BZF d   1      -4.526  -3.422   2.609  0.00  0.00    -0.016 A 
ATOM      7  C6  BZF d   1      -3.317  -2.918   2.174  0.00  0.00     0.022 A 
ATOM      8  C7  BZF d   1      -2.721  -3.388   1.052  0.00  0.00     0.029 A 
ATOM      9  C7A BZF d   1      -3.383  -4.370   0.356  0.00  0.00     0.058 A 
ENDROOT
TORSDOF 0
ENDMDL
