MODEL 1
REMARK minimizedAffinity 0.541568875
REMARK minimizedRMSD -1
REMARK  0 active torsions:
REMARK  status: ('A' for Active; 'I' for Inactive)
ROOT
ATOM      1  O1  BZF d   1       1.167  -3.851  -5.435  0.00  0.00    -0.204 OA
ATOM      2  C2  BZF d   1       0.729  -5.161  -5.480  0.00  0.00     0.174 A 
ATOM      3  C3  BZF d   1       1.755  -6.000  -5.733  0.00  0.00    -0.012 A 
ATOM      4  C3A BZF d   1       2.920  -5.170  -5.763  0.00  0.00    -0.107 A 
ATOM      5  C4  BZF d   1       4.248  -5.424  -5.956  0.00  0.00     0.055 A 
ATOM      6  C5  BZF d   1       5.120  -4.383  -5.998  0.00  0.00    -0.016 A 
ATOM      7  C6  BZF d   1       4.699  -3.077  -5.858  0.00  0.00     0.022 A 
ATOM      8  C7  BZF d   1       3.393  -2.776  -5.659  0.00  0.00     0.029 A 
ATOM      9  C7A BZF d   1       2.513  -3.828  -5.583  0.00  0.00     0.058 A 
ENDROOT
TORSDOF 0
ENDMDL
