MODEL 1
REMARK minimizedAffinity 16.9558983
REMARK minimizedRMSD -1
REMARK  0 active torsions:
REMARK  status: ('A' for Active; 'I' for Inactive)
ROOT
ATOM      1  O1  BZF d   1      -2.396   2.052  -4.001  0.00  0.00    -0.204 OA
ATOM      2  C2  BZF d   1      -2.176   2.123  -2.639  0.00  0.00     0.174 A 
ATOM      3  C3  BZF d   1      -2.001   3.402  -2.249  0.00  0.00    -0.012 A 
ATOM      4  C3A BZF d   1      -2.210   4.187  -3.426  0.00  0.00    -0.107 A 
ATOM      5  C4  BZF d   1      -2.189   5.529  -3.675  0.00  0.00     0.055 A 
ATOM      6  C5  BZF d   1      -2.362   5.967  -4.950  0.00  0.00    -0.016 A 
ATOM      7  C6  BZF d   1      -2.554   5.092  -5.999  0.00  0.00     0.022 A 
ATOM      8  C7  BZF d   1      -2.588   3.752  -5.800  0.00  0.00     0.029 A 
ATOM      9  C7A BZF d   1      -2.446   3.308  -4.508  0.00  0.00     0.058 A 
ENDROOT
TORSDOF 0
ENDMDL
