MODEL 1
REMARK minimizedAffinity -5.05310535
REMARK minimizedRMSD -1
REMARK  1 active torsions:
REMARK  status: ('A' for Active; 'I' for Inactive)
REMARK    1  A    between atoms: C1_2  and  C2_3 
ROOT
ATOM      1  C2  UNL d   1       0.158  -0.366   0.035  0.00  0.00    -0.077 A 
ATOM      2  C3  UNL d   1       1.502  -0.729   0.195  0.00  0.00     0.002 A 
ATOM      3  C4  UNL d   1       2.012  -1.008   1.465  0.00  0.00     0.002 A 
ATOM      4  C5  UNL d   1       1.184  -0.931   2.582  0.00  0.00    -0.004 A 
ATOM      5  C6  UNL d   1      -0.154  -0.569   2.434  0.00  0.00     0.002 A 
ATOM      6  C7  UNL d   1      -0.665  -0.288   1.166  0.00  0.00     0.002 A 
ENDROOT
BRANCH   1   7
ATOM      7  C1  UNL d   1      -0.406  -0.112  -1.338  0.00  0.00     0.055 C 
ATOM      8  C   UNL d   1      -0.478   1.378  -1.641  0.00  0.00     0.019 C 
ENDBRANCH   1   7
TORSDOF 1
ENDMDL
