MODEL 1
REMARK minimizedAffinity -3.45677924
REMARK minimizedRMSD -1
REMARK  1 active torsions:
REMARK  status: ('A' for Active; 'I' for Inactive)
REMARK    1  A    between atoms: C1_2  and  C2_3 
ROOT
ATOM      1  C2  UNL d   1       0.382  -0.830   1.710  0.00  0.00    -0.077 A 
ATOM      2  C3  UNL d   1      -0.891  -0.286   1.488  0.00  0.00     0.002 A 
ATOM      3  C4  UNL d   1      -1.259   0.154   0.215  0.00  0.00     0.002 A 
ATOM      4  C5  UNL d   1      -0.362   0.052  -0.846  0.00  0.00    -0.004 A 
ATOM      5  C6  UNL d   1       0.907  -0.486  -0.635  0.00  0.00     0.002 A 
ATOM      6  C7  UNL d   1       1.277  -0.925   0.636  0.00  0.00     0.002 A 
ENDROOT
BRANCH   1   7
ATOM      7  C1  UNL d   1       0.763  -1.350   3.071  0.00  0.00     0.055 C 
ATOM      8  C   UNL d   1       2.256  -1.199   3.323  0.00  0.00     0.019 C 
ENDBRANCH   1   7
TORSDOF 1
ENDMDL
