MODEL 1
REMARK minimizedAffinity -5.02015877
REMARK minimizedRMSD -1
REMARK  1 active torsions:
REMARK  status: ('A' for Active; 'I' for Inactive)
REMARK    1  A    between atoms: C1_2  and  C2_3 
ROOT
ATOM      1  C2  UNL d   1      -0.366  -0.002   0.669  0.00  0.00    -0.077 A 
ATOM      2  C3  UNL d   1       0.968   0.427   0.629  0.00  0.00     0.002 A 
ATOM      3  C4  UNL d   1       1.878  -0.007   1.594  0.00  0.00     0.002 A 
ATOM      4  C5  UNL d   1       1.466  -0.875   2.603  0.00  0.00    -0.004 A 
ATOM      5  C6  UNL d   1       0.141  -1.306   2.652  0.00  0.00     0.002 A 
ATOM      6  C7  UNL d   1      -0.771  -0.872   1.689  0.00  0.00     0.002 A 
ENDROOT
BRANCH   1   7
ATOM      7  C1  UNL d   1      -1.338   0.426  -0.399  0.00  0.00     0.055 C 
ATOM      8  C   UNL d   1      -0.690   1.387  -1.385  0.00  0.00     0.019 C 
ENDBRANCH   1   7
TORSDOF 1
ENDMDL
