MODEL 1
REMARK minimizedAffinity -4.41002846
REMARK minimizedRMSD -1
REMARK  1 active torsions:
REMARK  status: ('A' for Active; 'I' for Inactive)
REMARK    1  A    between atoms: C1_2  and  C2_3 
ROOT
ATOM      1  C2  UNL d   1       0.162  -0.233  -0.168  0.00  0.00    -0.077 A 
ATOM      2  C3  UNL d   1      -0.953  -0.022   0.656  0.00  0.00     0.002 A 
ATOM      3  C4  UNL d   1      -0.846  -0.172   2.040  0.00  0.00     0.002 A 
ATOM      4  C5  UNL d   1       0.373  -0.529   2.612  0.00  0.00    -0.004 A 
ATOM      5  C6  UNL d   1       1.487  -0.743   1.800  0.00  0.00     0.002 A 
ATOM      6  C7  UNL d   1       1.382  -0.594   0.417  0.00  0.00     0.002 A 
ENDROOT
BRANCH   1   7
ATOM      7  C1  UNL d   1       0.061  -0.023  -1.657  0.00  0.00     0.055 C 
ATOM      8  C   UNL d   1      -0.635   1.290  -1.985  0.00  0.00     0.019 C 
ENDBRANCH   1   7
TORSDOF 1
ENDMDL
