MODEL 1
REMARK minimizedAffinity 3.86888075
REMARK minimizedRMSD -1
REMARK  1 active torsions:
REMARK  status: ('A' for Active; 'I' for Inactive)
REMARK    1  A    between atoms: C1_2  and  C2_3 
ROOT
ATOM      1  C2  UNL d   1       0.861  -1.584   2.148  0.00  0.00    -0.077 A 
ATOM      2  C3  UNL d   1       0.844  -2.983   2.070  0.00  0.00     0.002 A 
ATOM      3  C4  UNL d   1      -0.109  -3.719   2.776  0.00  0.00     0.002 A 
ATOM      4  C5  UNL d   1      -1.055  -3.064   3.562  0.00  0.00    -0.004 A 
ATOM      5  C6  UNL d   1      -1.046  -1.672   3.648  0.00  0.00     0.002 A 
ATOM      6  C7  UNL d   1      -0.093  -0.936   2.944  0.00  0.00     0.002 A 
ENDROOT
BRANCH   1   7
ATOM      7  C1  UNL d   1       1.858  -0.786   1.348  0.00  0.00     0.055 C 
ATOM      8  C   UNL d   1       1.833  -1.183  -0.121  0.00  0.00     0.019 C 
ENDBRANCH   1   7
TORSDOF 1
ENDMDL
