MODEL 1
REMARK minimizedAffinity 11.4140739
REMARK minimizedRMSD -1
REMARK  0 active torsions:
REMARK  status: ('A' for Active; 'I' for Inactive)
ROOT
ATOM      1  C1  DEN d   1      -3.157   1.885  -1.697  0.00  0.00     0.130 A 
ATOM      2  C2  DEN d   1      -4.180   1.152  -2.437  0.00  0.00    -0.031 A 
ATOM      3  C3  DEN d   1      -3.627  -0.170  -2.792  0.00  0.00     0.027 A 
ATOM      4  C4  DEN d   1      -1.301  -1.151  -2.267  0.00  0.00     0.027 A 
ATOM      5  C5  DEN d   1      -0.084  -0.898  -1.671  0.00  0.00    -0.003 A 
ATOM      6  C6  DEN d   1       0.203   0.302  -1.077  0.00  0.00     0.001 A 
ATOM      7  C7  DEN d   1      -0.755   1.280  -1.026  0.00  0.00     0.017 A 
ATOM      8  C8  DEN d   1      -1.981   1.036  -1.630  0.00  0.00    -0.094 A 
ATOM      9  C9  DEN d   1      -2.256  -0.189  -2.215  0.00  0.00    -0.072 A 
ENDROOT
TORSDOF 0
ENDMDL
