MODEL 1
REMARK minimizedAffinity 4.44939375
REMARK minimizedRMSD -1
REMARK  0 active torsions:
REMARK  status: ('A' for Active; 'I' for Inactive)
ROOT
ATOM      1  C1  DEN d   1      -4.125   2.667  -3.685  0.00  0.00     0.130 A 
ATOM      2  C2  DEN d   1      -4.050   4.125  -3.671  0.00  0.00    -0.031 A 
ATOM      3  C3  DEN d   1      -2.792   4.511  -3.000  0.00  0.00     0.027 A 
ATOM      4  C4  DEN d   1      -0.962   3.000  -1.990  0.00  0.00     0.027 A 
ATOM      5  C5  DEN d   1      -0.588   1.696  -1.752  0.00  0.00    -0.003 A 
ATOM      6  C6  DEN d   1      -1.376   0.634  -2.108  0.00  0.00     0.001 A 
ATOM      7  C7  DEN d   1      -2.559   0.855  -2.763  0.00  0.00     0.017 A 
ATOM      8  C8  DEN d   1      -2.946   2.168  -3.000  0.00  0.00    -0.094 A 
ATOM      9  C9  DEN d   1      -2.130   3.228  -2.643  0.00  0.00    -0.072 A 
ENDROOT
TORSDOF 0
ENDMDL
