MODEL 1
REMARK minimizedAffinity 3.65206718
REMARK minimizedRMSD -1
REMARK  0 active torsions:
REMARK  status: ('A' for Active; 'I' for Inactive)
ROOT
ATOM      1  C1  DEN d   1      -4.623   2.874  -2.881  0.00  0.00     0.130 A 
ATOM      2  C2  DEN d   1      -4.063   4.204  -3.107  0.00  0.00    -0.031 A 
ATOM      3  C3  DEN d   1      -2.627   4.158  -2.766  0.00  0.00     0.027 A 
ATOM      4  C4  DEN d   1      -1.224   2.167  -1.917  0.00  0.00     0.027 A 
ATOM      5  C5  DEN d   1      -1.263   0.837  -1.559  0.00  0.00    -0.003 A 
ATOM      6  C6  DEN d   1      -2.423   0.108  -1.584  0.00  0.00     0.001 A 
ATOM      7  C7  DEN d   1      -3.583   0.693  -2.019  0.00  0.00     0.017 A 
ATOM      8  C8  DEN d   1      -3.552   2.035  -2.374  0.00  0.00    -0.094 A 
ATOM      9  C9  DEN d   1      -2.368   2.752  -2.353  0.00  0.00    -0.072 A 
ENDROOT
TORSDOF 0
ENDMDL
