MODEL 1
REMARK minimizedAffinity 5.49143934
REMARK minimizedRMSD -1
REMARK  0 active torsions:
REMARK  status: ('A' for Active; 'I' for Inactive)
ROOT
ATOM      1  C1  DEN d   1      -1.075   4.844  -2.692  0.00  0.00     0.130 A 
ATOM      2  C2  DEN d   1      -0.437   5.922  -1.941  0.00  0.00    -0.031 A 
ATOM      3  C3  DEN d   1       0.278   5.320  -0.797  0.00  0.00     0.027 A 
ATOM      4  C4  DEN d   1       0.461   2.837  -0.124  0.00  0.00     0.027 A 
ATOM      5  C5  DEN d   1       0.078   1.554  -0.449  0.00  0.00    -0.003 A 
ATOM      6  C6  DEN d   1      -0.737   1.284  -1.516  0.00  0.00     0.001 A 
ATOM      7  C7  DEN d   1      -1.160   2.307  -2.323  0.00  0.00     0.017 A 
ATOM      8  C8  DEN d   1      -0.784   3.603  -1.998  0.00  0.00    -0.094 A 
ATOM      9  C9  DEN d   1       0.051   3.855  -0.922  0.00  0.00    -0.072 A 
ENDROOT
TORSDOF 0
ENDMDL
