MODEL 1
REMARK minimizedAffinity 3.18578911
REMARK minimizedRMSD -1
REMARK  0 active torsions:
REMARK  status: ('A' for Active; 'I' for Inactive)
ROOT
ATOM      1  C1  DEN d   1      -5.978  -0.269   1.088  0.00  0.00     0.130 A 
ATOM      2  C2  DEN d   1      -5.996  -1.316   0.069  0.00  0.00    -0.031 A 
ATOM      3  C3  DEN d   1      -5.997  -2.622   0.758  0.00  0.00     0.027 A 
ATOM      4  C4  DEN d   1      -5.976  -3.124   3.288  0.00  0.00     0.027 A 
ATOM      5  C5  DEN d   1      -5.948  -2.559   4.544  0.00  0.00    -0.003 A 
ATOM      6  C6  DEN d   1      -5.894  -1.204   4.734  0.00  0.00     0.001 A 
ATOM      7  C7  DEN d   1      -5.912  -0.365   3.651  0.00  0.00     0.017 A 
ATOM      8  C8  DEN d   1      -5.933  -0.927   2.381  0.00  0.00    -0.094 A 
ATOM      9  C9  DEN d   1      -6.000  -2.299   2.210  0.00  0.00    -0.072 A 
ENDROOT
TORSDOF 0
ENDMDL
