MODEL 1
REMARK minimizedAffinity -2.63966393
REMARK minimizedRMSD -1
REMARK  0 active torsions:
REMARK  status: ('A' for Active; 'I' for Inactive)
ROOT
ATOM      1  C1  DEN d   1      -0.091   4.244   0.613  0.00  0.00     0.130 A 
ATOM      2  C2  DEN d   1      -0.304   4.648  -0.774  0.00  0.00    -0.031 A 
ATOM      3  C3  DEN d   1      -0.438   3.425  -1.590  0.00  0.00     0.027 A 
ATOM      4  C4  DEN d   1      -0.342   0.958  -0.844  0.00  0.00     0.027 A 
ATOM      5  C5  DEN d   1      -0.169   0.116   0.233  0.00  0.00    -0.003 A 
ATOM      6  C6  DEN d   1       0.075   0.588   1.495  0.00  0.00     0.001 A 
ATOM      7  C7  DEN d   1       0.106   1.938   1.721  0.00  0.00     0.017 A 
ATOM      8  C8  DEN d   1      -0.060   2.793   0.639  0.00  0.00    -0.094 A 
ATOM      9  C9  DEN d   1      -0.317   2.297  -0.627  0.00  0.00    -0.072 A 
ENDROOT
TORSDOF 0
ENDMDL
