MODEL 1
REMARK minimizedAffinity 3.43604898
REMARK minimizedRMSD -1
REMARK  0 active torsions:
REMARK  status: ('A' for Active; 'I' for Inactive)
ROOT
ATOM      1  C1  DEN d   1       0.641   4.400   0.210  0.00  0.00     0.130 A 
ATOM      2  C2  DEN d   1       0.313   4.667  -1.188  0.00  0.00    -0.031 A 
ATOM      3  C3  DEN d   1      -0.203   3.418  -1.783  0.00  0.00     0.027 A 
ATOM      4  C4  DEN d   1      -0.530   1.110  -0.680  0.00  0.00     0.027 A 
ATOM      5  C5  DEN d   1      -0.382   0.391   0.486  0.00  0.00    -0.003 A 
ATOM      6  C6  DEN d   1       0.145   0.945   1.623  0.00  0.00     0.001 A 
ATOM      7  C7  DEN d   1       0.501   2.268   1.631  0.00  0.00     0.017 A 
ATOM      8  C8  DEN d   1       0.362   2.996   0.457  0.00  0.00    -0.094 A 
ATOM      9  C9  DEN d   1      -0.185   2.422  -0.678  0.00  0.00    -0.072 A 
ENDROOT
TORSDOF 0
ENDMDL
