MODEL 1
REMARK minimizedAffinity -5.33718586
REMARK minimizedRMSD -1
REMARK  0 active torsions:
REMARK  status: ('A' for Active; 'I' for Inactive)
ROOT
ATOM      1  C   UNL d   1       0.997  -6.000   1.157  0.00  0.00     0.078 C 
ATOM      2  C1  UNL d   1       0.614  -5.087   0.030  0.00  0.00    -0.077 A 
ATOM      3  C2  UNL d   1      -0.464  -5.391  -0.810  0.00  0.00    -0.001 A 
ATOM      4  C3  UNL d   1      -0.803  -4.537  -1.861  0.00  0.00     0.003 A 
ATOM      5  C4  UNL d   1      -0.069  -3.373  -2.081  0.00  0.00    -0.005 A 
ATOM      6  C5  UNL d   1       1.007  -3.063  -1.251  0.00  0.00     0.003 A 
ATOM      7  C6  UNL d   1       1.347  -3.916  -0.200  0.00  0.00    -0.001 A 
ENDROOT
TORSDOF 0
ENDMDL
