MODEL 1
REMARK minimizedAffinity -1.71876836
REMARK minimizedRMSD -1
REMARK  0 active torsions:
REMARK  status: ('A' for Active; 'I' for Inactive)
ROOT
ATOM      1  C   UNL d   1       0.085  -0.547  -0.789  0.00  0.00     0.078 C 
ATOM      2  C1  UNL d   1      -0.041   0.468   0.307  0.00  0.00    -0.077 A 
ATOM      3  C2  UNL d   1      -1.253   1.129   0.542  0.00  0.00    -0.001 A 
ATOM      4  C3  UNL d   1      -1.353   2.079   1.560  0.00  0.00     0.003 A 
ATOM      5  C4  UNL d   1      -0.245   2.378   2.350  0.00  0.00    -0.005 A 
ATOM      6  C5  UNL d   1       0.966   1.727   2.122  0.00  0.00     0.003 A 
ATOM      7  C6  UNL d   1       1.068   0.777   1.105  0.00  0.00    -0.001 A 
ENDROOT
TORSDOF 0
ENDMDL
