MODEL 1
REMARK minimizedAffinity -4.63953781
REMARK minimizedRMSD -1
REMARK  0 active torsions:
REMARK  status: ('A' for Active; 'I' for Inactive)
ROOT
ATOM      1  C   UNL d   1       0.579  -1.036  -0.760  0.00  0.00     0.078 C 
ATOM      2  C1  UNL d   1       0.309   0.357  -0.274  0.00  0.00    -0.077 A 
ATOM      3  C2  UNL d   1       0.193   1.424  -1.173  0.00  0.00    -0.001 A 
ATOM      4  C3  UNL d   1      -0.048   2.717  -0.707  0.00  0.00     0.003 A 
ATOM      5  C4  UNL d   1      -0.174   2.956   0.660  0.00  0.00    -0.005 A 
ATOM      6  C5  UNL d   1      -0.058   1.900   1.563  0.00  0.00     0.003 A 
ATOM      7  C6  UNL d   1       0.183   0.606   1.098  0.00  0.00    -0.001 A 
ENDROOT
TORSDOF 0
ENDMDL
