MODEL 1
REMARK minimizedAffinity 17.080616
REMARK minimizedRMSD -1
REMARK  2 active torsions:
REMARK  status: ('A' for Active; 'I' for Inactive)
REMARK    1  A    between atoms: C1_2  and  C2_3 
REMARK    2  A    between atoms: C2_3  and  C3_4 
ROOT
ATOM      1  C3  UNL d   1       3.997  -1.362  -4.018  0.00  0.00    -0.075 A 
ATOM      2  C4  UNL d   1       3.438  -1.808  -5.225  0.00  0.00     0.002 A 
ATOM      3  C5  UNL d   1       3.845  -3.018  -5.788  0.00  0.00     0.002 A 
ATOM      4  C6  UNL d   1       4.819  -3.791  -5.160  0.00  0.00    -0.004 A 
ATOM      5  C7  UNL d   1       5.393  -3.349  -3.970  0.00  0.00     0.002 A 
ATOM      6  C8  UNL d   1       4.985  -2.141  -3.401  0.00  0.00     0.002 A 
ENDROOT
BRANCH   1   7
ATOM      7  C2  UNL d   1       3.540  -0.068  -3.387  0.00  0.00     0.056 C 
BRANCH   7   8
ATOM      8  C1  UNL d   1       3.936   1.184  -4.177  0.00  0.00     0.007 C 
ATOM      9  C   UNL d   1       5.435   1.452  -4.168  0.00  0.00     0.009 C 
ENDBRANCH   7   8
ENDBRANCH   1   7
TORSDOF 2
ENDMDL
