MODEL 1
REMARK minimizedAffinity 3.55831695
REMARK minimizedRMSD -1
REMARK  2 active torsions:
REMARK  status: ('A' for Active; 'I' for Inactive)
REMARK    1  A    between atoms: C1_2  and  C2_3 
REMARK    2  A    between atoms: C2_3  and  C3_4 
ROOT
ATOM      1  C3  UNL d   1       3.145  -1.526  -4.269  0.00  0.00    -0.075 A 
ATOM      2  C4  UNL d   1       4.418  -1.762  -3.729  0.00  0.00     0.002 A 
ATOM      3  C5  UNL d   1       5.283  -2.679  -4.327  0.00  0.00     0.002 A 
ATOM      4  C6  UNL d   1       4.883  -3.377  -5.464  0.00  0.00    -0.004 A 
ATOM      5  C7  UNL d   1       3.615  -3.163  -6.000  0.00  0.00     0.002 A 
ATOM      6  C8  UNL d   1       2.750  -2.243  -5.406  0.00  0.00     0.002 A 
ENDROOT
BRANCH   1   7
ATOM      7  C2  UNL d   1       2.216  -0.513  -3.643  0.00  0.00     0.056 C 
BRANCH   7   8
ATOM      8  C1  UNL d   1       2.511   0.936  -4.045  0.00  0.00     0.007 C 
ATOM      9  C   UNL d   1       3.920   1.134  -4.587  0.00  0.00     0.009 C 
ENDBRANCH   7   8
ENDBRANCH   1   7
TORSDOF 2
ENDMDL
