MODEL 1
REMARK minimizedAffinity 0.792003155
REMARK minimizedRMSD -1
REMARK  2 active torsions:
REMARK  status: ('A' for Active; 'I' for Inactive)
REMARK    1  A    between atoms: C1_2  and  C2_3 
REMARK    2  A    between atoms: C2_3  and  C3_4 
ROOT
ATOM      1  C3  UNL d   1      -0.841  -0.159  -1.214  0.00  0.00    -0.075 A 
ATOM      2  C4  UNL d   1      -1.661  -0.011  -2.343  0.00  0.00     0.002 A 
ATOM      3  C5  UNL d   1      -2.429  -1.079  -2.806  0.00  0.00     0.002 A 
ATOM      4  C6  UNL d   1      -2.379  -2.310  -2.155  0.00  0.00    -0.004 A 
ATOM      5  C7  UNL d   1      -1.556  -2.474  -1.044  0.00  0.00     0.002 A 
ATOM      6  C8  UNL d   1      -0.790  -1.405  -0.575  0.00  0.00     0.002 A 
ENDROOT
BRANCH   1   7
ATOM      7  C2  UNL d   1      -0.031   1.002  -0.690  0.00  0.00     0.056 C 
BRANCH   7   8
ATOM      8  C1  UNL d   1       0.443   0.830   0.757  0.00  0.00     0.007 C 
ATOM      9  C   UNL d   1      -0.638   1.145   1.783  0.00  0.00     0.009 C 
ENDBRANCH   7   8
ENDBRANCH   1   7
TORSDOF 2
ENDMDL
