MODEL 1
REMARK minimizedAffinity 17.6099224
REMARK minimizedRMSD -1
REMARK  2 active torsions:
REMARK  status: ('A' for Active; 'I' for Inactive)
REMARK    1  A    between atoms: C1_2  and  C2_3 
REMARK    2  A    between atoms: C2_3  and  C3_4 
ROOT
ATOM      1  C3  UNL d   1       4.293  -3.427   2.186  0.00  0.00    -0.075 A 
ATOM      2  C4  UNL d   1       5.170  -3.930   3.158  0.00  0.00     0.002 A 
ATOM      3  C5  UNL d   1       4.927  -5.165   3.760  0.00  0.00     0.002 A 
ATOM      4  C6  UNL d   1       3.803  -5.907   3.405  0.00  0.00    -0.004 A 
ATOM      5  C7  UNL d   1       2.916  -5.410   2.452  0.00  0.00     0.002 A 
ATOM      6  C8  UNL d   1       3.159  -4.176   1.846  0.00  0.00     0.002 A 
ENDROOT
BRANCH   1   7
ATOM      7  C2  UNL d   1       4.566  -2.105   1.510  0.00  0.00     0.056 C 
BRANCH   7   8
ATOM      8  C1  UNL d   1       3.747  -1.875   0.236  0.00  0.00     0.007 C 
ATOM      9  C   UNL d   1       4.439  -2.382  -1.023  0.00  0.00     0.009 C 
ENDBRANCH   7   8
ENDBRANCH   1   7
TORSDOF 2
ENDMDL
