MODEL 1
REMARK minimizedAffinity 8.89993572
REMARK minimizedRMSD -1
REMARK  2 active torsions:
REMARK  status: ('A' for Active; 'I' for Inactive)
REMARK    1  A    between atoms: C1_2  and  C2_3 
REMARK    2  A    between atoms: C2_3  and  C3_4 
ROOT
ATOM      1  C3  UNL d   1      -0.930  -5.972   0.979  0.00  0.00    -0.075 A 
ATOM      2  C4  UNL d   1       0.009  -5.931   2.019  0.00  0.00     0.002 A 
ATOM      3  C5  UNL d   1      -0.407  -5.938   3.351  0.00  0.00     0.002 A 
ATOM      4  C6  UNL d   1      -1.765  -5.974   3.658  0.00  0.00    -0.004 A 
ATOM      5  C7  UNL d   1      -2.708  -5.997   2.633  0.00  0.00     0.002 A 
ATOM      6  C8  UNL d   1      -2.294  -5.995   1.300  0.00  0.00     0.002 A 
ENDROOT
BRANCH   1   7
ATOM      7  C2  UNL d   1      -0.485  -5.995  -0.464  0.00  0.00     0.056 C 
BRANCH   7   8
ATOM      8  C1  UNL d   1       0.386  -4.801  -0.867  0.00  0.00     0.007 C 
ATOM      9  C   UNL d   1      -0.415  -3.529  -1.114  0.00  0.00     0.009 C 
ENDBRANCH   7   8
ENDBRANCH   1   7
TORSDOF 2
ENDMDL
