MODEL 1
REMARK minimizedAffinity -0.456535935
REMARK minimizedRMSD -1
REMARK  2 active torsions:
REMARK  status: ('A' for Active; 'I' for Inactive)
REMARK    1  A    between atoms: C1_2  and  C2_3 
REMARK    2  A    between atoms: C2_3  and  C3_4 
ROOT
ATOM      1  C3  UNL d   1      -2.582  -5.980   2.485  0.00  0.00    -0.075 A 
ATOM      2  C4  UNL d   1      -2.533  -5.997   1.084  0.00  0.00     0.002 A 
ATOM      3  C5  UNL d   1      -3.709  -5.989   0.333  0.00  0.00     0.002 A 
ATOM      4  C6  UNL d   1      -4.947  -5.974   0.973  0.00  0.00    -0.004 A 
ATOM      5  C7  UNL d   1      -5.008  -5.974   2.365  0.00  0.00     0.002 A 
ATOM      6  C8  UNL d   1      -3.833  -5.977   3.118  0.00  0.00     0.002 A 
ENDROOT
BRANCH   1   7
ATOM      7  C2  UNL d   1      -1.313  -5.958   3.303  0.00  0.00     0.056 C 
BRANCH   7   8
ATOM      8  C1  UNL d   1      -0.179  -5.144   2.672  0.00  0.00     0.007 C 
ATOM      9  C   UNL d   1       1.004  -5.999   2.236  0.00  0.00     0.009 C 
ENDBRANCH   7   8
ENDBRANCH   1   7
TORSDOF 2
ENDMDL
