MODEL 1
REMARK minimizedAffinity 5.11839485
REMARK minimizedRMSD -1
REMARK  2 active torsions:
REMARK  status: ('A' for Active; 'I' for Inactive)
REMARK    1  A    between atoms: C1_2  and  C2_3 
REMARK    2  A    between atoms: C2_3  and  C3_4 
ROOT
ATOM      1  C3  UNL d   1      -0.598  -4.549   2.308  0.00  0.00    -0.075 A 
ATOM      2  C4  UNL d   1      -0.048  -3.494   3.051  0.00  0.00     0.002 A 
ATOM      3  C5  UNL d   1      -0.631  -2.227   3.021  0.00  0.00     0.002 A 
ATOM      4  C6  UNL d   1      -1.763  -1.996   2.242  0.00  0.00    -0.004 A 
ATOM      5  C7  UNL d   1      -2.308  -3.032   1.487  0.00  0.00     0.002 A 
ATOM      6  C8  UNL d   1      -1.729  -4.302   1.519  0.00  0.00     0.002 A 
ENDROOT
BRANCH   1   7
ATOM      7  C2  UNL d   1       0.011  -5.929   2.359  0.00  0.00     0.056 C 
BRANCH   7   8
ATOM      8  C1  UNL d   1       1.466  -5.988   1.881  0.00  0.00     0.007 C 
ATOM      9  C   UNL d   1       2.473  -5.999   3.023  0.00  0.00     0.009 C 
ENDBRANCH   7   8
ENDBRANCH   1   7
TORSDOF 2
ENDMDL
