MODEL 1
REMARK minimizedAffinity 11.3613625
REMARK minimizedRMSD -1
REMARK  2 active torsions:
REMARK  status: ('A' for Active; 'I' for Inactive)
REMARK    1  A    between atoms: C1_2  and  C2_3 
REMARK    2  A    between atoms: C2_3  and  C3_4 
ROOT
ATOM      1  C3  UNL d   1       1.354  -0.033  -0.801  0.00  0.00    -0.075 A 
ATOM      2  C4  UNL d   1       0.300  -0.949  -0.929  0.00  0.00     0.002 A 
ATOM      3  C5  UNL d   1      -0.821  -0.859  -0.102  0.00  0.00     0.002 A 
ATOM      4  C6  UNL d   1      -0.897   0.139   0.867  0.00  0.00    -0.004 A 
ATOM      5  C7  UNL d   1       0.152   1.044   1.014  0.00  0.00     0.002 A 
ATOM      6  C8  UNL d   1       1.272   0.959   0.185  0.00  0.00     0.002 A 
ENDROOT
BRANCH   1   7
ATOM      7  C2  UNL d   1       2.556  -0.107  -1.712  0.00  0.00     0.056 C 
BRANCH   7   8
ATOM      8  C1  UNL d   1       2.821   1.180  -2.501  0.00  0.00     0.007 C 
ATOM      9  C   UNL d   1       3.538   0.937  -3.822  0.00  0.00     0.009 C 
ENDBRANCH   7   8
ENDBRANCH   1   7
TORSDOF 2
ENDMDL
