MODEL 1
REMARK minimizedAffinity 1.11143219
REMARK minimizedRMSD -1
REMARK  2 active torsions:
REMARK  status: ('A' for Active; 'I' for Inactive)
REMARK    1  A    between atoms: C1_2  and  C2_3 
REMARK    2  A    between atoms: C2_3  and  C3_4 
ROOT
ATOM      1  C3  UNL d   1       5.704  -2.871   4.862  0.00  0.00    -0.075 A 
ATOM      2  C4  UNL d   1       6.000  -1.507   4.991  0.00  0.00     0.002 A 
ATOM      3  C5  UNL d   1       5.699  -0.616   3.960  0.00  0.00     0.002 A 
ATOM      4  C6  UNL d   1       5.111  -1.079   2.785  0.00  0.00    -0.004 A 
ATOM      5  C7  UNL d   1       4.828  -2.435   2.639  0.00  0.00     0.002 A 
ATOM      6  C8  UNL d   1       5.123  -3.328   3.671  0.00  0.00     0.002 A 
ENDROOT
BRANCH   1   7
ATOM      7  C2  UNL d   1       6.000  -3.836   5.985  0.00  0.00     0.056 C 
BRANCH   7   8
ATOM      8  C1  UNL d   1       5.876  -5.311   5.590  0.00  0.00     0.007 C 
ATOM      9  C   UNL d   1       4.548  -5.933   6.000  0.00  0.00     0.009 C 
ENDBRANCH   7   8
ENDBRANCH   1   7
TORSDOF 2
ENDMDL
