MODEL 1
REMARK minimizedAffinity 2.35669327
REMARK minimizedRMSD -1
REMARK  2 active torsions:
REMARK  status: ('A' for Active; 'I' for Inactive)
REMARK    1  A    between atoms: C1_2  and  C2_3 
REMARK    2  A    between atoms: C2_3  and  C3_4 
ROOT
ATOM      1  C3  UNL d   1      -1.101  -1.007  -0.158  0.00  0.00    -0.075 A 
ATOM      2  C4  UNL d   1      -1.091  -1.238   1.225  0.00  0.00     0.002 A 
ATOM      3  C5  UNL d   1      -0.448  -0.348   2.087  0.00  0.00     0.002 A 
ATOM      4  C6  UNL d   1       0.199   0.776   1.577  0.00  0.00    -0.004 A 
ATOM      5  C7  UNL d   1       0.208   1.006   0.203  0.00  0.00     0.002 A 
ATOM      6  C8  UNL d   1      -0.437   0.120  -0.661  0.00  0.00     0.002 A 
ENDROOT
BRANCH   1   7
ATOM      7  C2  UNL d   1      -1.820  -1.950  -1.093  0.00  0.00     0.056 C 
BRANCH   7   8
ATOM      8  C1  UNL d   1      -3.059  -1.343  -1.760  0.00  0.00     0.007 C 
ATOM      9  C   UNL d   1      -2.722  -0.316  -2.832  0.00  0.00     0.009 C 
ENDBRANCH   7   8
ENDBRANCH   1   7
TORSDOF 2
ENDMDL
