MODEL 1
REMARK minimizedAffinity 5.37174559
REMARK minimizedRMSD -1
REMARK  2 active torsions:
REMARK  status: ('A' for Active; 'I' for Inactive)
REMARK    1  A    between atoms: C1_2  and  C2_3 
REMARK    2  A    between atoms: C2_3  and  C3_4 
ROOT
ATOM      1  C3  UNL d   1      -0.648  -0.423  -0.871  0.00  0.00    -0.075 A 
ATOM      2  C4  UNL d   1      -0.734  -1.642  -0.183  0.00  0.00     0.002 A 
ATOM      3  C5  UNL d   1      -1.659  -2.611  -0.571  0.00  0.00     0.002 A 
ATOM      4  C6  UNL d   1      -2.516  -2.371  -1.643  0.00  0.00    -0.004 A 
ATOM      5  C7  UNL d   1      -2.451  -1.156  -2.323  0.00  0.00     0.002 A 
ATOM      6  C8  UNL d   1      -1.523  -0.187  -1.939  0.00  0.00     0.002 A 
ENDROOT
BRANCH   1   7
ATOM      7  C2  UNL d   1       0.372   0.618  -0.475  0.00  0.00     0.056 C 
BRANCH   7   8
ATOM      8  C1  UNL d   1       0.694   0.637   1.023  0.00  0.00     0.007 C 
ATOM      9  C   UNL d   1      -0.485   1.067   1.886  0.00  0.00     0.009 C 
ENDBRANCH   7   8
ENDBRANCH   1   7
TORSDOF 2
ENDMDL
