MODEL 1
REMARK minimizedAffinity 5.80801964
REMARK minimizedRMSD -1
REMARK  2 active torsions:
REMARK  status: ('A' for Active; 'I' for Inactive)
REMARK    1  A    between atoms: C1_2  and  C2_3 
REMARK    2  A    between atoms: C2_3  and  C3_4 
ROOT
ATOM      1  C3  UNL d   1      -0.688  -0.711  -0.726  0.00  0.00    -0.075 A 
ATOM      2  C4  UNL d   1       0.144  -1.110  -1.783  0.00  0.00     0.002 A 
ATOM      3  C5  UNL d   1      -0.328  -1.981  -2.765  0.00  0.00     0.002 A 
ATOM      4  C6  UNL d   1      -1.631  -2.471  -2.699  0.00  0.00    -0.004 A 
ATOM      5  C7  UNL d   1      -2.460  -2.094  -1.645  0.00  0.00     0.002 A 
ATOM      6  C8  UNL d   1      -1.992  -1.219  -0.663  0.00  0.00     0.002 A 
ENDROOT
BRANCH   1   7
ATOM      7  C2  UNL d   1      -0.193   0.255   0.324  0.00  0.00     0.056 C 
BRANCH   7   8
ATOM      8  C1  UNL d   1       0.710   1.364  -0.225  0.00  0.00     0.007 C 
ATOM      9  C   UNL d   1       2.098   1.374   0.403  0.00  0.00     0.009 C 
ENDBRANCH   7   8
ENDBRANCH   1   7
TORSDOF 2
ENDMDL
