MODEL 1
REMARK minimizedAffinity 1.75396657
REMARK minimizedRMSD -1
REMARK  2 active torsions:
REMARK  status: ('A' for Active; 'I' for Inactive)
REMARK    1  A    between atoms: C1_2  and  C2_3 
REMARK    2  A    between atoms: C2_3  and  C3_4 
ROOT
ATOM      1  C3  UNL d   1      -0.465  -1.351   0.966  0.00  0.00    -0.075 A 
ATOM      2  C4  UNL d   1      -0.622  -0.444   2.024  0.00  0.00     0.002 A 
ATOM      3  C5  UNL d   1       0.009   0.799   1.991  0.00  0.00     0.002 A 
ATOM      4  C6  UNL d   1       0.813   1.147   0.908  0.00  0.00    -0.004 A 
ATOM      5  C7  UNL d   1       0.989   0.248  -0.141  0.00  0.00     0.002 A 
ATOM      6  C8  UNL d   1       0.355  -0.996  -0.113  0.00  0.00     0.002 A 
ENDROOT
BRANCH   1   7
ATOM      7  C2  UNL d   1      -1.170  -2.687   0.982  0.00  0.00     0.056 C 
BRANCH   7   8
ATOM      8  C1  UNL d   1      -2.211  -2.856  -0.129  0.00  0.00     0.007 C 
ATOM      9  C   UNL d   1      -1.980  -4.095  -0.984  0.00  0.00     0.009 C 
ENDBRANCH   7   8
ENDBRANCH   1   7
TORSDOF 2
ENDMDL
