MODEL 1
REMARK minimizedAffinity 9.1116333
REMARK minimizedRMSD -1
REMARK  2 active torsions:
REMARK  status: ('A' for Active; 'I' for Inactive)
REMARK    1  A    between atoms: C1_2  and  C2_3 
REMARK    2  A    between atoms: C2_3  and  C3_4 
ROOT
ATOM      1  C3  UNL d   1      -5.199  -0.980   3.597  0.00  0.00    -0.075 A 
ATOM      2  C4  UNL d   1      -5.500   0.369   3.362  0.00  0.00     0.002 A 
ATOM      3  C5  UNL d   1      -5.892   1.200   4.412  0.00  0.00     0.002 A 
ATOM      4  C6  UNL d   1      -5.997   0.692   5.705  0.00  0.00    -0.004 A 
ATOM      5  C7  UNL d   1      -5.716  -0.651   5.947  0.00  0.00     0.002 A 
ATOM      6  C8  UNL d   1      -5.319  -1.484   4.899  0.00  0.00     0.002 A 
ENDROOT
BRANCH   1   7
ATOM      7  C2  UNL d   1      -4.746  -1.878   2.470  0.00  0.00     0.056 C 
BRANCH   7   8
ATOM      8  C1  UNL d   1      -3.224  -1.991   2.336  0.00  0.00     0.007 C 
ATOM      9  C   UNL d   1      -2.783  -3.159   1.463  0.00  0.00     0.009 C 
ENDBRANCH   7   8
ENDBRANCH   1   7
TORSDOF 2
ENDMDL
