MODEL 1
REMARK minimizedAffinity 19.1803703
REMARK minimizedRMSD -1
REMARK  0 active torsions:
REMARK  status: ('A' for Active; 'I' for Inactive)
ROOT
ATOM      1  O1  BZF d   1       5.278   4.732   4.297  0.00  0.00    -0.204 OA
ATOM      2  C2  BZF d   1       5.369   5.999   3.754  0.00  0.00     0.174 A 
ATOM      3  C3  BZF d   1       4.965   5.999   2.468  0.00  0.00    -0.012 A 
ATOM      4  C3A BZF d   1       4.512   4.666   2.215  0.00  0.00    -0.107 A 
ATOM      5  C4  BZF d   1       3.979   4.046   1.121  0.00  0.00     0.055 A 
ATOM      6  C5  BZF d   1       3.710   2.716   1.181  0.00  0.00    -0.016 A 
ATOM      7  C6  BZF d   1       3.966   1.973   2.315  0.00  0.00     0.022 A 
ATOM      8  C7  BZF d   1       4.490   2.544   3.427  0.00  0.00     0.029 A 
ATOM      9  C7A BZF d   1       4.732   3.896   3.381  0.00  0.00     0.058 A 
ENDROOT
TORSDOF 0
ENDMDL
