MODEL 1
REMARK minimizedAffinity 16.9914265
REMARK minimizedRMSD -1
REMARK  0 active torsions:
REMARK  status: ('A' for Active; 'I' for Inactive)
ROOT
ATOM      1  O1  BZF d   1       2.675   1.641   4.569  0.00  0.00    -0.204 OA
ATOM      2  C2  BZF d   1       3.735   1.734   3.688  0.00  0.00     0.174 A 
ATOM      3  C3  BZF d   1       3.506   0.993   2.584  0.00  0.00    -0.012 A 
ATOM      4  C3A BZF d   1       2.183   0.474   2.747  0.00  0.00    -0.107 A 
ATOM      5  C4  BZF d   1       1.385  -0.321   1.975  0.00  0.00     0.055 A 
ATOM      6  C5  BZF d   1       0.173  -0.706   2.455  0.00  0.00    -0.016 A 
ATOM      7  C6  BZF d   1      -0.269  -0.318   3.703  0.00  0.00     0.022 A 
ATOM      8  C7  BZF d   1       0.485   0.474   4.503  0.00  0.00     0.029 A 
ATOM      9  C7A BZF d   1       1.696   0.892   4.007  0.00  0.00     0.058 A 
ENDROOT
TORSDOF 0
ENDMDL
