MODEL 1
REMARK minimizedAffinity 14.942131
REMARK minimizedRMSD -1
REMARK  0 active torsions:
REMARK  status: ('A' for Active; 'I' for Inactive)
ROOT
ATOM      1  O1  BZF d   1       2.333   0.547  -5.634  0.00  0.00    -0.204 OA
ATOM      2  C2  BZF d   1       3.644   0.333  -5.254  0.00  0.00     0.174 A 
ATOM      3  C3  BZF d   1       3.863  -0.974  -5.004  0.00  0.00    -0.012 A 
ATOM      4  C3A BZF d   1       2.635  -1.630  -5.334  0.00  0.00    -0.107 A 
ATOM      5  C4  BZF d   1       2.233  -2.935  -5.312  0.00  0.00     0.055 A 
ATOM      6  C5  BZF d   1       0.945  -3.235  -5.625  0.00  0.00    -0.016 A 
ATOM      7  C6  BZF d   1       0.032  -2.256  -5.958  0.00  0.00     0.022 A 
ATOM      8  C7  BZF d   1       0.386  -0.948  -5.999  0.00  0.00     0.029 A 
ATOM      9  C7A BZF d   1       1.695  -0.645  -5.715  0.00  0.00     0.058 A 
ENDROOT
TORSDOF 0
ENDMDL
