MODEL 1
REMARK minimizedAffinity 10.3519468
REMARK minimizedRMSD -1
REMARK  0 active torsions:
REMARK  status: ('A' for Active; 'I' for Inactive)
ROOT
ATOM      1  O1  BZF d   1       3.980   4.437   2.174  0.00  0.00    -0.204 OA
ATOM      2  C2  BZF d   1       4.292   3.693   1.053  0.00  0.00     0.174 A 
ATOM      3  C3  BZF d   1       4.395   2.384   1.362  0.00  0.00    -0.012 A 
ATOM      4  C3A BZF d   1       4.041   2.294   2.745  0.00  0.00    -0.107 A 
ATOM      5  C4  BZF d   1       3.940   1.253   3.623  0.00  0.00     0.055 A 
ATOM      6  C5  BZF d   1       3.642   1.512   4.923  0.00  0.00    -0.016 A 
ATOM      7  C6  BZF d   1       3.443   2.798   5.381  0.00  0.00     0.022 A 
ATOM      8  C7  BZF d   1       3.528   3.863   4.546  0.00  0.00     0.029 A 
ATOM      9  C7A BZF d   1       3.797   3.602   3.225  0.00  0.00     0.058 A 
ENDROOT
TORSDOF 0
ENDMDL
