MODEL 1
REMARK minimizedAffinity 5.82175636
REMARK minimizedRMSD -1
REMARK  0 active torsions:
REMARK  status: ('A' for Active; 'I' for Inactive)
ROOT
ATOM      1  O1  BZF d   1       4.142   2.247   1.988  0.00  0.00    -0.204 OA
ATOM      2  C2  BZF d   1       4.545   1.519   3.091  0.00  0.00     0.174 A 
ATOM      3  C3  BZF d   1       4.974   2.338   4.073  0.00  0.00    -0.012 A 
ATOM      4  C3A BZF d   1       4.744   3.663   3.586  0.00  0.00    -0.107 A 
ATOM      5  C4  BZF d   1       4.950   4.906   4.113  0.00  0.00     0.055 A 
ATOM      6  C5  BZF d   1       4.686   5.999   3.349  0.00  0.00    -0.016 A 
ATOM      7  C6  BZF d   1       4.221   5.886   2.056  0.00  0.00     0.022 A 
ATOM      8  C7  BZF d   1       3.996   4.674   1.492  0.00  0.00     0.029 A 
ATOM      9  C7A BZF d   1       4.231   3.568   2.272  0.00  0.00     0.058 A 
ENDROOT
TORSDOF 0
ENDMDL
