MODEL 1
REMARK minimizedAffinity 9.7414732
REMARK minimizedRMSD -1
REMARK  0 active torsions:
REMARK  status: ('A' for Active; 'I' for Inactive)
ROOT
ATOM      1  O1  BZF d   1      -0.480  -2.985   3.966  0.00  0.00    -0.204 OA
ATOM      2  C2  BZF d   1       0.607  -3.449   4.681  0.00  0.00     0.174 A 
ATOM      3  C3  BZF d   1       1.688  -2.671   4.465  0.00  0.00    -0.012 A 
ATOM      4  C3A BZF d   1       1.224  -1.604   3.632  0.00  0.00    -0.107 A 
ATOM      5  C4  BZF d   1       1.827  -0.506   3.090  0.00  0.00     0.055 A 
ATOM      6  C5  BZF d   1       1.112   0.300   2.262  0.00  0.00    -0.016 A 
ATOM      7  C6  BZF d   1      -0.206   0.034   1.950  0.00  0.00     0.022 A 
ATOM      8  C7  BZF d   1      -0.848  -1.041   2.467  0.00  0.00     0.029 A 
ATOM      9  C7A BZF d   1      -0.138  -1.839   3.331  0.00  0.00     0.058 A 
ENDROOT
TORSDOF 0
ENDMDL
