MODEL 1
REMARK minimizedAffinity 18.3064289
REMARK minimizedRMSD -1
REMARK  0 active torsions:
REMARK  status: ('A' for Active; 'I' for Inactive)
ROOT
ATOM      1  O1  BZF d   1      -2.015  -3.778  -3.977  0.00  0.00    -0.204 OA
ATOM      2  C2  BZF d   1      -1.896  -4.242  -5.273  0.00  0.00     0.174 A 
ATOM      3  C3  BZF d   1      -1.101  -3.431  -6.000  0.00  0.00    -0.012 A 
ATOM      4  C3A BZF d   1      -0.624  -2.446  -5.078  0.00  0.00    -0.107 A 
ATOM      5  C4  BZF d   1       0.216  -1.376  -5.198  0.00  0.00     0.055 A 
ATOM      6  C5  BZF d   1       0.417  -0.570  -4.122  0.00  0.00    -0.016 A 
ATOM      7  C6  BZF d   1      -0.208  -0.802  -2.915  0.00  0.00     0.022 A 
ATOM      8  C7  BZF d   1      -1.046  -1.854  -2.746  0.00  0.00     0.029 A 
ATOM      9  C7A BZF d   1      -1.226  -2.689  -3.821  0.00  0.00     0.058 A 
ENDROOT
TORSDOF 0
ENDMDL
