MODEL 1
REMARK minimizedAffinity 6.63514805
REMARK minimizedRMSD -1
REMARK  0 active torsions:
REMARK  status: ('A' for Active; 'I' for Inactive)
ROOT
ATOM      1  O1  BZF d   1       2.280  -1.737   4.663  0.00  0.00    -0.204 OA
ATOM      2  C2  BZF d   1       1.711  -2.977   4.878  0.00  0.00     0.174 A 
ATOM      3  C3  BZF d   1       0.478  -3.039   4.334  0.00  0.00    -0.012 A 
ATOM      4  C3A BZF d   1       0.301  -1.788   3.662  0.00  0.00    -0.107 A 
ATOM      5  C4  BZF d   1      -0.715  -1.256   2.920  0.00  0.00     0.055 A 
ATOM      6  C5  BZF d   1      -0.603   0.020   2.466  0.00  0.00    -0.016 A 
ATOM      7  C6  BZF d   1       0.506   0.793   2.739  0.00  0.00     0.022 A 
ATOM      8  C7  BZF d   1       1.542   0.307   3.465  0.00  0.00     0.029 A 
ATOM      9  C7A BZF d   1       1.447  -0.993   3.898  0.00  0.00     0.058 A 
ENDROOT
TORSDOF 0
ENDMDL
