MODEL 1
REMARK minimizedAffinity 18.2254238
REMARK minimizedRMSD -1
REMARK  0 active torsions:
REMARK  status: ('A' for Active; 'I' for Inactive)
ROOT
ATOM      1  O1  BZF d   1      -1.689  -2.901   2.711  0.00  0.00    -0.204 OA
ATOM      2  C2  BZF d   1      -2.732  -2.160   2.190  0.00  0.00     0.174 A 
ATOM      3  C3  BZF d   1      -2.415  -0.849   2.152  0.00  0.00    -0.012 A 
ATOM      4  C3A BZF d   1      -1.056  -0.777   2.596  0.00  0.00    -0.107 A 
ATOM      5  C4  BZF d   1      -0.176   0.253   2.760  0.00  0.00     0.055 A 
ATOM      6  C5  BZF d   1       1.053  -0.004   3.281  0.00  0.00    -0.016 A 
ATOM      7  C6  BZF d   1       1.431  -1.277   3.653  0.00  0.00     0.022 A 
ATOM      8  C7  BZF d   1       0.594  -2.333   3.504  0.00  0.00     0.029 A 
ATOM      9  C7A BZF d   1      -0.636  -2.081   2.947  0.00  0.00     0.058 A 
ENDROOT
TORSDOF 0
ENDMDL
