MODEL 1
REMARK minimizedAffinity 7.95772839
REMARK minimizedRMSD -1
REMARK  1 active torsions:
REMARK  status: ('A' for Active; 'I' for Inactive)
REMARK    1  A    between atoms: C1_2  and  C2_3 
ROOT
ATOM      1  C2  UNL d   1      -1.538  -1.324   2.839  0.00  0.00    -0.073 A 
ATOM      2  C3  UNL d   1      -1.041  -0.647   3.958  0.00  0.00    -0.002 A 
ATOM      3  C4  UNL d   1       0.263  -0.878   4.400  0.00  0.00     0.004 A 
ATOM      4  C5  UNL d   1       1.083  -1.782   3.724  0.00  0.00    -0.004 A 
ATOM      5  C6  UNL d   1       0.608  -2.459   2.596  0.00  0.00    -0.075 A 
ATOM      6  C7  UNL d   1       1.477  -3.435   1.860  0.00  0.00     0.076 C 
ATOM      7  C8  UNL d   1      -0.703  -2.223   2.160  0.00  0.00     0.001 A 
ENDROOT
BRANCH   1   8
ATOM      8  C1  UNL d   1      -2.943  -1.073   2.354  0.00  0.00     0.053 C 
ATOM      9  C   UNL d   1      -3.491   0.252   2.859  0.00  0.00     0.018 C 
ENDBRANCH   1   8
TORSDOF 1
ENDMDL
