MODEL 1
REMARK minimizedAffinity 7.52553034
REMARK minimizedRMSD -1
REMARK  1 active torsions:
REMARK  status: ('A' for Active; 'I' for Inactive)
REMARK    1  A    between atoms: C1_2  and  C2_3 
ROOT
ATOM      1  C2  UNL d   1       0.970  -0.250  -1.204  0.00  0.00    -0.073 A 
ATOM      2  C3  UNL d   1      -0.375  -0.636  -1.237  0.00  0.00    -0.002 A 
ATOM      3  C4  UNL d   1      -0.889  -1.487  -0.257  0.00  0.00     0.004 A 
ATOM      4  C5  UNL d   1      -0.067  -1.954   0.768  0.00  0.00    -0.004 A 
ATOM      5  C6  UNL d   1       1.277  -1.570   0.825  0.00  0.00    -0.075 A 
ATOM      6  C7  UNL d   1       2.175  -2.066   1.920  0.00  0.00     0.076 C 
ATOM      7  C8  UNL d   1       1.786  -0.718  -0.164  0.00  0.00     0.001 A 
ENDROOT
BRANCH   1   8
ATOM      8  C1  UNL d   1       1.527   0.673  -2.256  0.00  0.00     0.053 C 
ATOM      9  C   UNL d   1       2.541  -0.026  -3.149  0.00  0.00     0.018 C 
ENDBRANCH   1   8
TORSDOF 1
ENDMDL
