MODEL 1
REMARK minimizedAffinity 11.3943939
REMARK minimizedRMSD -1
REMARK  1 active torsions:
REMARK  status: ('A' for Active; 'I' for Inactive)
REMARK    1  A    between atoms: C1_2  and  C2_3 
ROOT
ATOM      1  C2  UNL d   1       3.638  -4.474   4.122  0.00  0.00    -0.073 A 
ATOM      2  C3  UNL d   1       3.435  -5.756   3.598  0.00  0.00    -0.002 A 
ATOM      3  C4  UNL d   1       2.651  -5.935   2.458  0.00  0.00     0.004 A 
ATOM      4  C5  UNL d   1       2.069  -4.836   1.826  0.00  0.00    -0.004 A 
ATOM      5  C6  UNL d   1       2.270  -3.546   2.327  0.00  0.00    -0.075 A 
ATOM      6  C7  UNL d   1       1.649  -2.354   1.661  0.00  0.00     0.076 C 
ATOM      7  C8  UNL d   1       3.057  -3.375   3.475  0.00  0.00     0.001 A 
ENDROOT
BRANCH   1   8
ATOM      8  C1  UNL d   1       4.489  -4.275   5.349  0.00  0.00     0.053 C 
ATOM      9  C   UNL d   1       4.872  -5.595   5.999  0.00  0.00     0.018 C 
ENDBRANCH   1   8
TORSDOF 1
ENDMDL
