MODEL 1
REMARK minimizedAffinity 12.5559559
REMARK minimizedRMSD -1
REMARK  1 active torsions:
REMARK  status: ('A' for Active; 'I' for Inactive)
REMARK    1  A    between atoms: C1_2  and  C2_3 
ROOT
ATOM      1  C2  UNL d   1       0.969  -1.224   0.758  0.00  0.00    -0.073 A 
ATOM      2  C3  UNL d   1       1.903  -0.277   0.324  0.00  0.00    -0.002 A 
ATOM      3  C4  UNL d   1       1.586   0.601  -0.714  0.00  0.00     0.004 A 
ATOM      4  C5  UNL d   1       0.332   0.546  -1.322  0.00  0.00    -0.004 A 
ATOM      5  C6  UNL d   1      -0.619  -0.386  -0.894  0.00  0.00    -0.075 A 
ATOM      6  C7  UNL d   1      -1.971  -0.459  -1.539  0.00  0.00     0.076 C 
ATOM      7  C8  UNL d   1      -0.293  -1.266   0.147  0.00  0.00     0.001 A 
ENDROOT
BRANCH   1   8
ATOM      8  C1  UNL d   1       1.304  -2.170   1.882  0.00  0.00     0.053 C 
ATOM      9  C   UNL d   1       2.223  -3.292   1.428  0.00  0.00     0.018 C 
ENDBRANCH   1   8
TORSDOF 1
ENDMDL
