MODEL 1
REMARK minimizedAffinity 10.9762058
REMARK minimizedRMSD -1
REMARK  1 active torsions:
REMARK  status: ('A' for Active; 'I' for Inactive)
REMARK    1  A    between atoms: C1_2  and  C2_3 
ROOT
ATOM      1  C2  UNL d   1      -4.043  -1.141  -4.679  0.00  0.00    -0.073 A 
ATOM      2  C3  UNL d   1      -4.866  -2.270  -4.602  0.00  0.00    -0.002 A 
ATOM      3  C4  UNL d   1      -5.085  -2.902  -3.377  0.00  0.00     0.004 A 
ATOM      4  C5  UNL d   1      -4.488  -2.408  -2.217  0.00  0.00    -0.004 A 
ATOM      5  C6  UNL d   1      -3.672  -1.274  -2.271  0.00  0.00    -0.075 A 
ATOM      6  C7  UNL d   1      -3.021  -0.732  -1.032  0.00  0.00     0.076 C 
ATOM      7  C8  UNL d   1      -3.455  -0.647  -3.506  0.00  0.00     0.001 A 
ENDROOT
BRANCH   1   8
ATOM      8  C1  UNL d   1      -3.810  -0.452  -5.998  0.00  0.00     0.053 C 
ATOM      9  C   UNL d   1      -3.121   0.892  -5.825  0.00  0.00     0.018 C 
ENDBRANCH   1   8
TORSDOF 1
ENDMDL
