MODEL 1
REMARK minimizedAffinity -2.76534748
REMARK minimizedRMSD -1
REMARK  1 active torsions:
REMARK  status: ('A' for Active; 'I' for Inactive)
REMARK    1  A    between atoms: C1_2  and  C2_3 
ROOT
ATOM      1  C2  UNL d   1       0.002  -0.083   0.388  0.00  0.00    -0.073 A 
ATOM      2  C3  UNL d   1      -1.323  -0.295   0.787  0.00  0.00    -0.002 A 
ATOM      3  C4  UNL d   1      -1.612  -0.674   2.098  0.00  0.00     0.004 A 
ATOM      4  C5  UNL d   1      -0.583  -0.837   3.025  0.00  0.00    -0.004 A 
ATOM      5  C6  UNL d   1       0.746  -0.618   2.649  0.00  0.00    -0.075 A 
ATOM      6  C7  UNL d   1       1.865  -0.792   3.634  0.00  0.00     0.076 C 
ATOM      7  C8  UNL d   1       1.029  -0.241   1.329  0.00  0.00     0.001 A 
ENDROOT
BRANCH   1   8
ATOM      8  C1  UNL d   1       0.319   0.332  -1.026  0.00  0.00     0.053 C 
ATOM      9  C   UNL d   1      -0.733   1.272  -1.593  0.00  0.00     0.018 C 
ENDBRANCH   1   8
TORSDOF 1
ENDMDL
