MODEL 1
REMARK minimizedAffinity -5.02659369
REMARK minimizedRMSD -1
REMARK  1 active torsions:
REMARK  status: ('A' for Active; 'I' for Inactive)
REMARK    1  A    between atoms: C1_2  and  C2_3 
ROOT
ATOM      1  C2  UNL d   1      -0.033  -0.394   0.472  0.00  0.00    -0.073 A 
ATOM      2  C3  UNL d   1      -0.979   0.178   1.331  0.00  0.00    -0.002 A 
ATOM      3  C4  UNL d   1      -0.759   0.196   2.709  0.00  0.00     0.004 A 
ATOM      4  C5  UNL d   1       0.409  -0.350   3.241  0.00  0.00    -0.004 A 
ATOM      5  C6  UNL d   1       1.371  -0.915   2.398  0.00  0.00    -0.075 A 
ATOM      6  C7  UNL d   1       2.632  -1.509   2.955  0.00  0.00     0.076 C 
ATOM      7  C8  UNL d   1       1.142  -0.933   1.016  0.00  0.00     0.001 A 
ENDROOT
BRANCH   1   8
ATOM      8  C1  UNL d   1      -0.263  -0.411  -1.017  0.00  0.00     0.053 C 
ATOM      9  C   UNL d   1      -0.796   0.919  -1.526  0.00  0.00     0.018 C 
ENDBRANCH   1   8
TORSDOF 1
ENDMDL
