MODEL 1
REMARK minimizedAffinity -4.46592379
REMARK minimizedRMSD -1
REMARK  1 active torsions:
REMARK  status: ('A' for Active; 'I' for Inactive)
REMARK    1  A    between atoms: C1_2  and  C2_3 
ROOT
ATOM      1  C2  UNL d   1      -0.238   0.370  -1.086  0.00  0.00    -0.073 A 
ATOM      2  C3  UNL d   1       0.858  -0.264  -1.681  0.00  0.00    -0.002 A 
ATOM      3  C4  UNL d   1       1.800  -0.929  -0.894  0.00  0.00     0.004 A 
ATOM      4  C5  UNL d   1       1.652  -0.972   0.492  0.00  0.00    -0.004 A 
ATOM      5  C6  UNL d   1       0.556  -0.354   1.104  0.00  0.00    -0.075 A 
ATOM      6  C7  UNL d   1       0.384  -0.390   2.594  0.00  0.00     0.076 C 
ATOM      7  C8  UNL d   1      -0.384   0.314   0.307  0.00  0.00     0.001 A 
ENDROOT
BRANCH   1   8
ATOM      8  C1  UNL d   1      -1.261   1.084  -1.932  0.00  0.00     0.053 C 
ATOM      9  C   UNL d   1      -0.843   2.511  -2.249  0.00  0.00     0.018 C 
ENDBRANCH   1   8
TORSDOF 1
ENDMDL
