MODEL 1
REMARK minimizedAffinity -1.26536047
REMARK minimizedRMSD -1
REMARK  1 active torsions:
REMARK  status: ('A' for Active; 'I' for Inactive)
REMARK    1  A    between atoms: C1_2  and  C2_3 
ROOT
ATOM      1  C2  UNL d   1       1.384  -0.246   0.433  0.00  0.00    -0.073 A 
ATOM      2  C3  UNL d   1       1.837  -0.168   1.756  0.00  0.00    -0.002 A 
ATOM      3  C4  UNL d   1       0.926  -0.154   2.812  0.00  0.00     0.004 A 
ATOM      4  C5  UNL d   1      -0.444  -0.224   2.560  0.00  0.00    -0.004 A 
ATOM      5  C6  UNL d   1      -0.915  -0.314   1.246  0.00  0.00    -0.075 A 
ATOM      6  C7  UNL d   1      -2.386  -0.388   0.957  0.00  0.00     0.076 C 
ATOM      7  C8  UNL d   1       0.006  -0.325   0.190  0.00  0.00     0.001 A 
ENDROOT
BRANCH   1   8
ATOM      8  C1  UNL d   1       2.365  -0.268  -0.711  0.00  0.00     0.053 C 
ATOM      9  C   UNL d   1       2.514  -1.658  -1.307  0.00  0.00     0.018 C 
ENDBRANCH   1   8
TORSDOF 1
ENDMDL
