MODEL 1
REMARK minimizedAffinity -4.63426352
REMARK minimizedRMSD -1
REMARK  1 active torsions:
REMARK  status: ('A' for Active; 'I' for Inactive)
REMARK    1  A    between atoms: C1_2  and  C2_3 
ROOT
ATOM      1  C2  UNL d   1       0.236  -0.348   0.096  0.00  0.00    -0.073 A 
ATOM      2  C3  UNL d   1       1.025  -1.041  -0.829  0.00  0.00    -0.002 A 
ATOM      3  C4  UNL d   1       2.113  -1.802  -0.398  0.00  0.00     0.004 A 
ATOM      4  C5  UNL d   1       2.418  -1.883   0.961  0.00  0.00    -0.004 A 
ATOM      5  C6  UNL d   1       1.634  -1.207   1.902  0.00  0.00    -0.075 A 
ATOM      6  C7  UNL d   1       1.951  -1.282   3.367  0.00  0.00     0.076 C 
ATOM      7  C8  UNL d   1       0.545  -0.443   1.461  0.00  0.00     0.001 A 
ENDROOT
BRANCH   1   8
ATOM      8  C1  UNL d   1      -0.943   0.470  -0.364  0.00  0.00     0.053 C 
ATOM      9  C   UNL d   1      -0.768   0.970  -1.789  0.00  0.00     0.018 C 
ENDBRANCH   1   8
TORSDOF 1
ENDMDL
