MODEL 1
REMARK minimizedAffinity -5.57126856
REMARK minimizedRMSD -1
REMARK  1 active torsions:
REMARK  status: ('A' for Active; 'I' for Inactive)
REMARK    1  A    between atoms: C1_2  and  C2_3 
ROOT
ATOM      1  C2  UNL d   1      -0.195  -0.068  -0.946  0.00  0.00    -0.073 A 
ATOM      2  C3  UNL d   1       0.795  -0.883  -1.507  0.00  0.00    -0.002 A 
ATOM      3  C4  UNL d   1       1.787  -1.444  -0.701  0.00  0.00     0.004 A 
ATOM      4  C5  UNL d   1       1.795  -1.203   0.673  0.00  0.00    -0.004 A 
ATOM      5  C6  UNL d   1       0.807  -0.401   1.254  0.00  0.00    -0.075 A 
ATOM      6  C7  UNL d   1       0.802  -0.130   2.730  0.00  0.00     0.076 C 
ATOM      7  C8  UNL d   1      -0.184   0.161   0.438  0.00  0.00     0.001 A 
ENDROOT
BRANCH   1   8
ATOM      8  C1  UNL d   1      -1.271   0.535  -1.811  0.00  0.00     0.053 C 
ATOM      9  C   UNL d   1      -0.874   1.902  -2.345  0.00  0.00     0.018 C 
ENDBRANCH   1   8
TORSDOF 1
ENDMDL
