MODEL 1
REMARK minimizedAffinity -4.81008053
REMARK minimizedRMSD -1
REMARK  1 active torsions:
REMARK  status: ('A' for Active; 'I' for Inactive)
REMARK    1  A    between atoms: C1_2  and  C2_3 
ROOT
ATOM      1  C2  UNL d   1      -0.140   0.322  -1.139  0.00  0.00    -0.073 A 
ATOM      2  C3  UNL d   1       0.729  -0.545  -1.811  0.00  0.00    -0.002 A 
ATOM      3  C4  UNL d   1       1.450  -1.508  -1.104  0.00  0.00     0.004 A 
ATOM      4  C5  UNL d   1       1.304  -1.619   0.279  0.00  0.00    -0.004 A 
ATOM      5  C6  UNL d   1       0.431  -0.769   0.967  0.00  0.00    -0.075 A 
ATOM      6  C7  UNL d   1       0.265  -0.874   2.454  0.00  0.00     0.076 C 
ATOM      7  C8  UNL d   1      -0.287   0.197   0.250  0.00  0.00     0.001 A 
ENDROOT
BRANCH   1   8
ATOM      8  C1  UNL d   1      -0.925   1.360  -1.899  0.00  0.00     0.053 C 
ATOM      9  C   UNL d   1      -0.077   2.574  -2.248  0.00  0.00     0.018 C 
ENDBRANCH   1   8
TORSDOF 1
ENDMDL
