MODEL 1
REMARK minimizedAffinity -4.82971048
REMARK minimizedRMSD -1
REMARK  0 active torsions:
REMARK  status: ('A' for Active; 'I' for Inactive)
ROOT
ATOM      1  C1  BNZ d   1       0.549  -1.734  -0.362  0.00  0.00     0.000 A 
ATOM      2  C2  BNZ d   1       0.105  -0.502   0.037  0.00  0.00     0.000 A 
ATOM      3  C3  BNZ d   1       0.882   0.610  -0.130  0.00  0.00     0.000 A 
ATOM      4  C4  BNZ d   1       2.116   0.484  -0.658  0.00  0.00     0.000 A 
ATOM      5  C5  BNZ d   1       2.582  -0.753  -1.057  0.00  0.00     0.000 A 
ATOM      6  C6  BNZ d   1       1.782  -1.865  -0.923  0.00  0.00     0.000 A 
ENDROOT
TORSDOF 0
ENDMDL
