MODEL 1
REMARK minimizedAffinity -4.90659952
REMARK minimizedRMSD -1
REMARK  0 active torsions:
REMARK  status: ('A' for Active; 'I' for Inactive)
ROOT
ATOM      1  C1  BNZ d   1       0.683   1.477  -0.697  0.00  0.00     0.000 A 
ATOM      2  C2  BNZ d   1       1.587   0.448  -0.725  0.00  0.00     0.000 A 
ATOM      3  C3  BNZ d   1       1.210  -0.824  -0.397  0.00  0.00     0.000 A 
ATOM      4  C4  BNZ d   1      -0.058  -1.059  -0.002  0.00  0.00     0.000 A 
ATOM      5  C5  BNZ d   1      -0.978  -0.031   0.042  0.00  0.00     0.000 A 
ATOM      6  C6  BNZ d   1      -0.605   1.241  -0.327  0.00  0.00     0.000 A 
ENDROOT
TORSDOF 0
ENDMDL
