MODEL 1
REMARK minimizedAffinity -4.66504622
REMARK minimizedRMSD -1
REMARK  0 active torsions:
REMARK  status: ('A' for Active; 'I' for Inactive)
ROOT
ATOM      1  C1  BNZ d   1       0.944   1.510  -1.023  0.00  0.00     0.000 A 
ATOM      2  C2  BNZ d   1       0.313   0.299  -1.114  0.00  0.00     0.000 A 
ATOM      3  C3  BNZ d   1       1.027  -0.866  -1.097  0.00  0.00     0.000 A 
ATOM      4  C4  BNZ d   1       2.373  -0.817  -1.029  0.00  0.00     0.000 A 
ATOM      5  C5  BNZ d   1       3.026   0.397  -0.947  0.00  0.00     0.000 A 
ATOM      6  C6  BNZ d   1       2.300   1.566  -0.925  0.00  0.00     0.000 A 
ENDROOT
TORSDOF 0
ENDMDL
