MODEL 1
REMARK minimizedAffinity -3.56461287
REMARK minimizedRMSD -1
REMARK  0 active torsions:
REMARK  status: ('A' for Active; 'I' for Inactive)
ROOT
ATOM      1  C1  BNZ d   1       0.835   0.261  -0.685  0.00  0.00     0.000 A 
ATOM      2  C2  BNZ d   1       1.718  -0.785  -0.695  0.00  0.00     0.000 A 
ATOM      3  C3  BNZ d   1       2.730  -0.838  -1.612  0.00  0.00     0.000 A 
ATOM      4  C4  BNZ d   1       2.833   0.133  -2.542  0.00  0.00     0.000 A 
ATOM      5  C5  BNZ d   1       1.944   1.190  -2.551  0.00  0.00     0.000 A 
ATOM      6  C6  BNZ d   1       0.951   1.260  -1.602  0.00  0.00     0.000 A 
ENDROOT
TORSDOF 0
ENDMDL
