MODEL 1
REMARK minimizedAffinity -0.617206454
REMARK minimizedRMSD -1
REMARK  0 active torsions:
REMARK  status: ('A' for Active; 'I' for Inactive)
ROOT
ATOM      1  C1  BNZ d   1      -0.093   0.764  -0.560  0.00  0.00     0.000 A 
ATOM      2  C2  BNZ d   1       1.161   0.376  -0.949  0.00  0.00     0.000 A 
ATOM      3  C3  BNZ d   1       1.530  -0.939  -0.912  0.00  0.00     0.000 A 
ATOM      4  C4  BNZ d   1       0.660  -1.859  -0.449  0.00  0.00     0.000 A 
ATOM      5  C5  BNZ d   1      -0.606  -1.483  -0.044  0.00  0.00     0.000 A 
ATOM      6  C6  BNZ d   1      -0.987  -0.163  -0.120  0.00  0.00     0.000 A 
ENDROOT
TORSDOF 0
ENDMDL
