MODEL 1
REMARK minimizedAffinity -3.99884892
REMARK minimizedRMSD -1
REMARK  0 active torsions:
REMARK  status: ('A' for Active; 'I' for Inactive)
ROOT
ATOM      1  C1  BNZ d   1       1.298   0.964  -0.255  0.00  0.00     0.000 A 
ATOM      2  C2  BNZ d   1       0.209   0.135  -0.289  0.00  0.00     0.000 A 
ATOM      3  C3  BNZ d   1       0.361  -1.213  -0.456  0.00  0.00     0.000 A 
ATOM      4  C4  BNZ d   1       1.597  -1.725  -0.629  0.00  0.00     0.000 A 
ATOM      5  C5  BNZ d   1       2.704  -0.900  -0.607  0.00  0.00     0.000 A 
ATOM      6  C6  BNZ d   1       2.550   0.452  -0.400  0.00  0.00     0.000 A 
ENDROOT
TORSDOF 0
ENDMDL
