MODEL 1
REMARK minimizedAffinity -3.20631456
REMARK minimizedRMSD -1
REMARK  0 active torsions:
REMARK  status: ('A' for Active; 'I' for Inactive)
ROOT
ATOM      1  C1  BNZ d   1       0.467   1.115  -1.366  0.00  0.00     0.000 A 
ATOM      2  C2  BNZ d   1       1.275   0.011  -1.428  0.00  0.00     0.000 A 
ATOM      3  C3  BNZ d   1       0.871  -1.183  -0.898  0.00  0.00     0.000 A 
ATOM      4  C4  BNZ d   1      -0.321  -1.261  -0.272  0.00  0.00     0.000 A 
ATOM      5  C5  BNZ d   1      -1.143  -0.154  -0.193  0.00  0.00     0.000 A 
ATOM      6  C6  BNZ d   1      -0.750   1.036  -0.762  0.00  0.00     0.000 A 
ENDROOT
TORSDOF 0
ENDMDL
