MODEL 1
REMARK minimizedAffinity -5.14843702
REMARK minimizedRMSD -1
REMARK  0 active torsions:
REMARK  status: ('A' for Active; 'I' for Inactive)
ROOT
ATOM      1  C1  BNZ d   1       1.529  -0.764  -0.178  0.00  0.00     0.000 A 
ATOM      2  C2  BNZ d   1       2.647  -1.095  -0.897  0.00  0.00     0.000 A 
ATOM      3  C3  BNZ d   1       3.074  -0.306  -1.928  0.00  0.00     0.000 A 
ATOM      4  C4  BNZ d   1       2.362   0.788  -2.265  0.00  0.00     0.000 A 
ATOM      5  C5  BNZ d   1       1.228   1.130  -1.556  0.00  0.00     0.000 A 
ATOM      6  C6  BNZ d   1       0.822   0.355  -0.494  0.00  0.00     0.000 A 
ENDROOT
TORSDOF 0
ENDMDL
