MODEL 1
REMARK minimizedAffinity -3.87747192
REMARK minimizedRMSD -1
REMARK  0 active torsions:
REMARK  status: ('A' for Active; 'I' for Inactive)
ROOT
ATOM      1  C1  BNZ d   1       1.206  -0.247  -0.822  0.00  0.00     0.000 A 
ATOM      2  C2  BNZ d   1       2.207  -0.467  -1.731  0.00  0.00     0.000 A 
ATOM      3  C3  BNZ d   1       2.471   0.444  -2.715  0.00  0.00     0.000 A 
ATOM      4  C4  BNZ d   1       1.710   1.553  -2.814  0.00  0.00     0.000 A 
ATOM      5  C5  BNZ d   1       0.691   1.784  -1.911  0.00  0.00     0.000 A 
ATOM      6  C6  BNZ d   1       0.453   0.884  -0.898  0.00  0.00     0.000 A 
ENDROOT
TORSDOF 0
ENDMDL
