MODEL 1
REMARK minimizedAffinity -4.51161623
REMARK minimizedRMSD -1
REMARK  0 active torsions:
REMARK  status: ('A' for Active; 'I' for Inactive)
ROOT
ATOM      1  C1  BNZ d   1       2.035  -0.010  -2.613  0.00  0.00     0.000 A 
ATOM      2  C2  BNZ d   1       1.678  -0.877  -1.615  0.00  0.00     0.000 A 
ATOM      3  C3  BNZ d   1       0.615  -0.606  -0.800  0.00  0.00     0.000 A 
ATOM      4  C4  BNZ d   1      -0.064   0.549  -0.958  0.00  0.00     0.000 A 
ATOM      5  C5  BNZ d   1       0.289   1.437  -1.954  0.00  0.00     0.000 A 
ATOM      6  C6  BNZ d   1       1.336   1.143  -2.797  0.00  0.00     0.000 A 
ENDROOT
TORSDOF 0
ENDMDL
