MODEL 1
REMARK minimizedAffinity -5.05457354
REMARK minimizedRMSD -1
REMARK  0 active torsions:
REMARK  status: ('A' for Active; 'I' for Inactive)
ROOT
ATOM      1  C1  BNZ d   1       0.889  -1.618  -0.619  0.00  0.00     0.000 A 
ATOM      2  C2  BNZ d   1       2.046  -1.707  -1.346  0.00  0.00     0.000 A 
ATOM      3  C3  BNZ d   1       2.831  -0.606  -1.549  0.00  0.00     0.000 A 
ATOM      4  C4  BNZ d   1       2.439   0.587  -1.059  0.00  0.00     0.000 A 
ATOM      5  C5  BNZ d   1       1.270   0.695  -0.332  0.00  0.00     0.000 A 
ATOM      6  C6  BNZ d   1       0.502  -0.423  -0.097  0.00  0.00     0.000 A 
ENDROOT
TORSDOF 0
ENDMDL
