MODEL 1
REMARK minimizedAffinity -4.24018145
REMARK minimizedRMSD -1
REMARK  0 active torsions:
REMARK  status: ('A' for Active; 'I' for Inactive)
ROOT
ATOM      1  C1  BNZ d   1       0.209   1.900  -1.362  0.00  0.00     0.000 A 
ATOM      2  C2  BNZ d   1      -0.600   1.099  -0.601  0.00  0.00     0.000 A 
ATOM      3  C3  BNZ d   1      -0.094   0.010   0.051  0.00  0.00     0.000 A 
ATOM      4  C4  BNZ d   1       1.211  -0.300  -0.091  0.00  0.00     0.000 A 
ATOM      5  C5  BNZ d   1       2.038   0.492  -0.862  0.00  0.00     0.000 A 
ATOM      6  C6  BNZ d   1       1.533   1.610  -1.485  0.00  0.00     0.000 A 
ENDROOT
TORSDOF 0
ENDMDL
