MODEL 1
REMARK minimizedAffinity -3.68565965
REMARK minimizedRMSD -1
REMARK  0 active torsions:
REMARK  status: ('A' for Active; 'I' for Inactive)
ROOT
ATOM      1  C1  BNZ d   1      -2.554   0.063   3.225  0.00  0.00     0.000 A 
ATOM      2  C2  BNZ d   1      -2.757  -0.452   1.972  0.00  0.00     0.000 A 
ATOM      3  C3  BNZ d   1      -1.996  -0.040   0.914  0.00  0.00     0.000 A 
ATOM      4  C4  BNZ d   1      -1.062   0.914   1.101  0.00  0.00     0.000 A 
ATOM      5  C5  BNZ d   1      -0.852   1.450   2.356  0.00  0.00     0.000 A 
ATOM      6  C6  BNZ d   1      -1.593   1.005   3.426  0.00  0.00     0.000 A 
ENDROOT
TORSDOF 0
ENDMDL
