MODEL 1
REMARK minimizedAffinity -1.76037073
REMARK minimizedRMSD -1
REMARK  0 active torsions:
REMARK  status: ('A' for Active; 'I' for Inactive)
ROOT
ATOM      1  C1  BNZ d   1      -2.568   1.158   1.938  0.00  0.00     0.000 A 
ATOM      2  C2  BNZ d   1      -2.064   2.225   2.632  0.00  0.00     0.000 A 
ATOM      3  C3  BNZ d   1      -1.524   2.058   3.876  0.00  0.00     0.000 A 
ATOM      4  C4  BNZ d   1      -1.524   0.833   4.441  0.00  0.00     0.000 A 
ATOM      5  C5  BNZ d   1      -2.037  -0.251   3.757  0.00  0.00     0.000 A 
ATOM      6  C6  BNZ d   1      -2.545  -0.086   2.489  0.00  0.00     0.000 A 
ENDROOT
TORSDOF 0
ENDMDL
