MODEL 1
REMARK minimizedAffinity -0.182536826
REMARK minimizedRMSD -1
REMARK  0 active torsions:
REMARK  status: ('A' for Active; 'I' for Inactive)
ROOT
ATOM      1  C1  BNZ d   1      -0.016  -1.622  -0.150  0.00  0.00     0.000 A 
ATOM      2  C2  BNZ d   1       0.802  -0.633  -0.628  0.00  0.00     0.000 A 
ATOM      3  C3  BNZ d   1       0.374   0.664  -0.682  0.00  0.00     0.000 A 
ATOM      4  C4  BNZ d   1      -0.883   0.964  -0.297  0.00  0.00     0.000 A 
ATOM      5  C5  BNZ d   1      -1.723  -0.023   0.178  0.00  0.00     0.000 A 
ATOM      6  C6  BNZ d   1      -1.276  -1.321   0.267  0.00  0.00     0.000 A 
ENDROOT
TORSDOF 0
ENDMDL
