MODEL 1
REMARK minimizedAffinity -3.26108718
REMARK minimizedRMSD -1
REMARK  0 active torsions:
REMARK  status: ('A' for Active; 'I' for Inactive)
ROOT
ATOM      1  C1  BNZ d   1       0.770   0.476  -0.100  0.00  0.00     0.000 A 
ATOM      2  C2  BNZ d   1      -0.202  -0.172   0.616  0.00  0.00     0.000 A 
ATOM      3  C3  BNZ d   1      -1.506   0.229   0.547  0.00  0.00     0.000 A 
ATOM      4  C4  BNZ d   1      -1.832   1.301  -0.204  0.00  0.00     0.000 A 
ATOM      5  C5  BNZ d   1      -0.863   1.971  -0.924  0.00  0.00     0.000 A 
ATOM      6  C6  BNZ d   1       0.444   1.540  -0.883  0.00  0.00     0.000 A 
ENDROOT
TORSDOF 0
ENDMDL
