MODEL 1
REMARK minimizedAffinity -1.5096072
REMARK minimizedRMSD -1
REMARK  0 active torsions:
REMARK  status: ('A' for Active; 'I' for Inactive)
ROOT
ATOM      1  C1  BNZ d   1       1.322  -1.740  -0.955  0.00  0.00     0.000 A 
ATOM      2  C2  BNZ d   1       0.802  -0.493  -1.182  0.00  0.00     0.000 A 
ATOM      3  C3  BNZ d   1      -0.417  -0.140  -0.673  0.00  0.00     0.000 A 
ATOM      4  C4  BNZ d   1      -1.131  -1.046   0.026  0.00  0.00     0.000 A 
ATOM      5  C5  BNZ d   1      -0.625  -2.309   0.255  0.00  0.00     0.000 A 
ATOM      6  C6  BNZ d   1       0.620  -2.648  -0.225  0.00  0.00     0.000 A 
ENDROOT
TORSDOF 0
ENDMDL
