MODEL 1
REMARK minimizedAffinity -4.98232603
REMARK minimizedRMSD -1
REMARK  1 active torsions:
REMARK  status: ('A' for Active; 'I' for Inactive)
REMARK    1  A    between atoms: C1_2  and  C2_3 
ROOT
ATOM      1  C2  UNL d   1      -0.381  -0.861  -0.060  0.00  0.00    -0.081 A 
ATOM      2  C3  UNL d   1      -1.456  -0.148   0.486  0.00  0.00     0.006 A 
ATOM      3  C4  UNL d   1      -1.364   1.233   0.679  0.00  0.00     0.002 A 
ATOM      4  C5  UNL d   1      -0.201   1.924   0.323  0.00  0.00    -0.080 A 
ATOM      5  C6  UNL d   1      -0.102   3.410   0.497  0.00  0.00     0.076 C 
ATOM      6  C7  UNL d   1       0.879   1.209  -0.205  0.00  0.00     0.002 A 
ATOM      7  C8  UNL d   1       0.789  -0.171  -0.398  0.00  0.00     0.006 A 
ENDROOT
BRANCH   1   8
ATOM      8  C1  UNL d   1      -0.500  -2.339  -0.329  0.00  0.00     0.054 C 
ATOM      9  C   UNL d   1      -0.144  -2.669  -1.772  0.00  0.00     0.018 C 
ENDBRANCH   1   8
TORSDOF 1
ENDMDL
