MODEL 1
REMARK minimizedAffinity -2.07875967
REMARK minimizedRMSD -1
REMARK  1 active torsions:
REMARK  status: ('A' for Active; 'I' for Inactive)
REMARK    1  A    between atoms: C1_2  and  C2_3 
ROOT
ATOM      1  C2  UNL d   1      -0.298  -0.330   0.118  0.00  0.00    -0.081 A 
ATOM      2  C3  UNL d   1      -0.979   0.619   0.891  0.00  0.00     0.006 A 
ATOM      3  C4  UNL d   1      -0.688   1.979   0.761  0.00  0.00     0.002 A 
ATOM      4  C5  UNL d   1       0.282   2.413  -0.149  0.00  0.00    -0.080 A 
ATOM      5  C6  UNL d   1       0.582   3.873  -0.320  0.00  0.00     0.076 C 
ATOM      6  C7  UNL d   1       0.975   1.464  -0.908  0.00  0.00     0.002 A 
ATOM      7  C8  UNL d   1       0.685   0.104  -0.778  0.00  0.00     0.006 A 
ENDROOT
BRANCH   1   8
ATOM      8  C1  UNL d   1      -0.655  -1.792   0.210  0.00  0.00     0.054 C 
ATOM      9  C   UNL d   1      -0.747  -2.426  -1.171  0.00  0.00     0.018 C 
ENDBRANCH   1   8
TORSDOF 1
ENDMDL
