MODEL 1
REMARK minimizedAffinity -3.71009278
REMARK minimizedRMSD -1
REMARK  1 active torsions:
REMARK  status: ('A' for Active; 'I' for Inactive)
REMARK    1  A    between atoms: C1_2  and  C2_3 
ROOT
ATOM      1  C2  UNL d   1      -0.440  -2.094  -0.400  0.00  0.00    -0.081 A 
ATOM      2  C3  UNL d   1       0.660  -1.759   0.398  0.00  0.00     0.006 A 
ATOM      3  C4  UNL d   1       0.899  -0.429   0.752  0.00  0.00     0.002 A 
ATOM      4  C5  UNL d   1       0.038   0.586   0.322  0.00  0.00    -0.080 A 
ATOM      5  C6  UNL d   1       0.265   2.014   0.720  0.00  0.00     0.076 C 
ATOM      6  C7  UNL d   1      -1.052   0.253  -0.490  0.00  0.00     0.002 A 
ATOM      7  C8  UNL d   1      -1.291  -1.076  -0.846  0.00  0.00     0.006 A 
ENDROOT
BRANCH   1   8
ATOM      8  C1  UNL d   1      -0.737  -3.535  -0.731  0.00  0.00     0.054 C 
ATOM      9  C   UNL d   1      -1.054  -3.710  -2.209  0.00  0.00     0.018 C 
ENDBRANCH   1   8
TORSDOF 1
ENDMDL
