MODEL 1
REMARK minimizedAffinity -3.88260841
REMARK minimizedRMSD -1
REMARK  1 active torsions:
REMARK  status: ('A' for Active; 'I' for Inactive)
REMARK    1  A    between atoms: C1_2  and  C2_3 
ROOT
ATOM      1  C2  UNL d   1      -0.381  -1.441  -0.142  0.00  0.00    -0.081 A 
ATOM      2  C3  UNL d   1      -1.467  -0.860   0.525  0.00  0.00     0.006 A 
ATOM      3  C4  UNL d   1      -1.390   0.453   0.996  0.00  0.00     0.002 A 
ATOM      4  C5  UNL d   1      -0.229   1.209   0.801  0.00  0.00    -0.080 A 
ATOM      5  C6  UNL d   1      -0.144   2.630   1.275  0.00  0.00     0.076 C 
ATOM      6  C7  UNL d   1       0.862   0.624   0.150  0.00  0.00     0.002 A 
ATOM      7  C8  UNL d   1       0.785  -0.689  -0.320  0.00  0.00     0.006 A 
ENDROOT
BRANCH   1   8
ATOM      8  C1  UNL d   1      -0.485  -2.834  -0.707  0.00  0.00     0.054 C 
ATOM      9  C   UNL d   1       0.011  -2.886  -2.145  0.00  0.00     0.018 C 
ENDBRANCH   1   8
TORSDOF 1
ENDMDL
