MODEL 1
REMARK minimizedAffinity -0.628230274
REMARK minimizedRMSD -1
REMARK  1 active torsions:
REMARK  status: ('A' for Active; 'I' for Inactive)
REMARK    1  A    between atoms: C1_2  and  C2_3 
ROOT
ATOM      1  C2  UNL d   1       0.120  -0.844  -0.427  0.00  0.00    -0.081 A 
ATOM      2  C3  UNL d   1      -1.040  -0.077  -0.260  0.00  0.00     0.006 A 
ATOM      3  C4  UNL d   1      -0.953   1.266   0.117  0.00  0.00     0.002 A 
ATOM      4  C5  UNL d   1       0.294   1.865   0.325  0.00  0.00    -0.080 A 
ATOM      5  C6  UNL d   1       0.402   3.313   0.701  0.00  0.00     0.076 C 
ATOM      6  C7  UNL d   1       1.452   1.094   0.176  0.00  0.00     0.002 A 
ATOM      7  C8  UNL d   1       1.366  -0.248  -0.201  0.00  0.00     0.006 A 
ENDROOT
BRANCH   1   8
ATOM      8  C1  UNL d   1       0.032  -2.273  -0.896  0.00  0.00     0.054 C 
ATOM      9  C   UNL d   1      -0.216  -2.349  -2.396  0.00  0.00     0.018 C 
ENDBRANCH   1   8
TORSDOF 1
ENDMDL
