MODEL 1
REMARK minimizedAffinity -5.20874453
REMARK minimizedRMSD -1
REMARK  1 active torsions:
REMARK  status: ('A' for Active; 'I' for Inactive)
REMARK    1  A    between atoms: C1_2  and  C2_3 
ROOT
ATOM      1  C2  UNL d   1       0.036  -0.645   0.111  0.00  0.00    -0.081 A 
ATOM      2  C3  UNL d   1       1.122   0.078  -0.397  0.00  0.00     0.006 A 
ATOM      3  C4  UNL d   1       1.079   1.473  -0.456  0.00  0.00     0.002 A 
ATOM      4  C5  UNL d   1      -0.046   2.168  -0.001  0.00  0.00    -0.080 A 
ATOM      5  C6  UNL d   1      -0.092   3.667  -0.030  0.00  0.00     0.076 C 
ATOM      6  C7  UNL d   1      -1.138   1.446   0.491  0.00  0.00     0.002 A 
ATOM      7  C8  UNL d   1      -1.097   0.051   0.549  0.00  0.00     0.006 A 
ENDROOT
BRANCH   1   8
ATOM      8  C1  UNL d   1       0.104  -2.146   0.236  0.00  0.00     0.054 C 
ATOM      9  C   UNL d   1      -0.036  -2.821  -1.121  0.00  0.00     0.018 C 
ENDBRANCH   1   8
TORSDOF 1
ENDMDL
