MODEL 1
REMARK minimizedAffinity -4.61798429
REMARK minimizedRMSD -1
REMARK  1 active torsions:
REMARK  status: ('A' for Active; 'I' for Inactive)
REMARK    1  A    between atoms: C1_2  and  C2_3 
ROOT
ATOM      1  C2  UNL d   1      -0.409  -0.957   0.140  0.00  0.00    -0.081 A 
ATOM      2  C3  UNL d   1      -1.508  -0.280   0.684  0.00  0.00     0.006 A 
ATOM      3  C4  UNL d   1      -1.552   1.117   0.680  0.00  0.00     0.002 A 
ATOM      4  C5  UNL d   1      -0.503   1.858   0.126  0.00  0.00    -0.080 A 
ATOM      5  C6  UNL d   1      -0.552   3.357   0.088  0.00  0.00     0.076 C 
ATOM      6  C7  UNL d   1       0.602   1.183  -0.401  0.00  0.00     0.002 A 
ATOM      7  C8  UNL d   1       0.647  -0.213  -0.397  0.00  0.00     0.006 A 
ENDROOT
BRANCH   1   8
ATOM      8  C1  UNL d   1      -0.388  -2.463   0.084  0.00  0.00     0.054 C 
ATOM      9  C   UNL d   1      -0.181  -2.961  -1.339  0.00  0.00     0.018 C 
ENDBRANCH   1   8
TORSDOF 1
ENDMDL
