MODEL 1
REMARK minimizedAffinity -4.77627277
REMARK minimizedRMSD -1
REMARK  1 active torsions:
REMARK  status: ('A' for Active; 'I' for Inactive)
REMARK    1  A    between atoms: C1_2  and  C2_3 
ROOT
ATOM      1  C2  UNL d   1      -0.591  -1.203  -0.450  0.00  0.00    -0.081 A 
ATOM      2  C3  UNL d   1      -1.680  -0.737   0.297  0.00  0.00     0.006 A 
ATOM      3  C4  UNL d   1      -1.739   0.597   0.707  0.00  0.00     0.002 A 
ATOM      4  C5  UNL d   1      -0.716   1.489   0.369  0.00  0.00    -0.080 A 
ATOM      5  C6  UNL d   1      -0.782   2.931   0.777  0.00  0.00     0.076 C 
ATOM      6  C7  UNL d   1       0.381   1.020  -0.362  0.00  0.00     0.002 A 
ATOM      7  C8  UNL d   1       0.441  -0.314  -0.771  0.00  0.00     0.006 A 
ENDROOT
BRANCH   1   8
ATOM      8  C1  UNL d   1      -0.555  -2.625  -0.948  0.00  0.00     0.054 C 
ATOM      9  C   UNL d   1      -0.116  -2.690  -2.404  0.00  0.00     0.018 C 
ENDBRANCH   1   8
TORSDOF 1
ENDMDL
