MODEL 1
REMARK minimizedAffinity -3.03744817
REMARK minimizedRMSD -1
REMARK  1 active torsions:
REMARK  status: ('A' for Active; 'I' for Inactive)
REMARK    1  A    between atoms: C1_2  and  C2_3 
ROOT
ATOM      1  C2  UNL d   1      -0.407  -0.916  -0.027  0.00  0.00    -0.081 A 
ATOM      2  C3  UNL d   1      -1.453  -0.176   0.536  0.00  0.00     0.006 A 
ATOM      3  C4  UNL d   1      -1.317   1.200   0.740  0.00  0.00     0.002 A 
ATOM      4  C5  UNL d   1      -0.138   1.858   0.377  0.00  0.00    -0.080 A 
ATOM      5  C6  UNL d   1       0.009   3.339   0.562  0.00  0.00     0.076 C 
ATOM      6  C7  UNL d   1       0.914   1.115  -0.170  0.00  0.00     0.002 A 
ATOM      7  C8  UNL d   1       0.780  -0.260  -0.373  0.00  0.00     0.006 A 
ENDROOT
BRANCH   1   8
ATOM      8  C1  UNL d   1      -0.574  -2.388  -0.307  0.00  0.00     0.054 C 
ATOM      9  C   UNL d   1      -0.495  -2.680  -1.799  0.00  0.00     0.018 C 
ENDBRANCH   1   8
TORSDOF 1
ENDMDL
