MODEL 1
REMARK minimizedAffinity -4.97673988
REMARK minimizedRMSD -1
REMARK  1 active torsions:
REMARK  status: ('A' for Active; 'I' for Inactive)
REMARK    1  A    between atoms: C1_2  and  C2_3 
ROOT
ATOM      1  C2  UNL d   1       0.166  -1.206  -0.530  0.00  0.00    -0.081 A 
ATOM      2  C3  UNL d   1      -0.621  -1.184   0.628  0.00  0.00     0.006 A 
ATOM      3  C4  UNL d   1      -0.833   0.012   1.318  0.00  0.00     0.002 A 
ATOM      4  C5  UNL d   1      -0.268   1.207   0.857  0.00  0.00    -0.080 A 
ATOM      5  C6  UNL d   1      -0.513   2.503   1.572  0.00  0.00     0.076 C 
ATOM      6  C7  UNL d   1       0.533   1.182  -0.290  0.00  0.00     0.002 A 
ATOM      7  C8  UNL d   1       0.745  -0.014  -0.979  0.00  0.00     0.006 A 
ENDROOT
BRANCH   1   8
ATOM      8  C1  UNL d   1       0.343  -2.482  -1.313  0.00  0.00     0.054 C 
ATOM      9  C   UNL d   1      -0.760  -3.482  -0.998  0.00  0.00     0.018 C 
ENDBRANCH   1   8
TORSDOF 1
ENDMDL
