MODEL 1
REMARK minimizedAffinity -4.4019928
REMARK minimizedRMSD -1
REMARK  1 active torsions:
REMARK  status: ('A' for Active; 'I' for Inactive)
REMARK    1  A    between atoms: C1_2  and  C2_3 
ROOT
ATOM      1  C2  UNL d   1      -0.003  -0.745  -0.048  0.00  0.00    -0.081 A 
ATOM      2  C3  UNL d   1      -1.186  -0.073   0.284  0.00  0.00     0.006 A 
ATOM      3  C4  UNL d   1      -1.218   1.323   0.330  0.00  0.00     0.002 A 
ATOM      4  C5  UNL d   1      -0.071   2.069   0.039  0.00  0.00    -0.080 A 
ATOM      5  C6  UNL d   1      -0.100   3.569   0.056  0.00  0.00     0.076 C 
ATOM      6  C7  UNL d   1       1.115   1.398  -0.275  0.00  0.00     0.002 A 
ATOM      7  C8  UNL d   1       1.148   0.002  -0.321  0.00  0.00     0.006 A 
ENDROOT
BRANCH   1   8
ATOM      8  C1  UNL d   1       0.018  -2.248  -0.162  0.00  0.00     0.054 C 
ATOM      9  C   UNL d   1      -0.262  -2.698  -1.588  0.00  0.00     0.018 C 
ENDBRANCH   1   8
TORSDOF 1
ENDMDL
