MODEL 1
REMARK minimizedAffinity -2.41584039
REMARK minimizedRMSD -1
REMARK  0 active torsions:
REMARK  status: ('A' for Active; 'I' for Inactive)
ROOT
ATOM      1  C4' PXY d   1      -0.306  -0.218   3.726  0.00  0.00     0.077 C 
ATOM      2  C1' PXY d   1       0.310  -0.862  -1.986  0.00  0.00     0.077 C 
ATOM      3  C1  PXY d   1       0.159  -0.700  -0.486  0.00  0.00    -0.082 A 
ATOM      4  C2  PXY d   1      -1.026  -0.408   0.025  0.00  0.00     0.003 A 
ATOM      5  C3  PXY d   1      -1.174  -0.227   1.376  0.00  0.00     0.003 A 
ATOM      6  C4  PXY d   1      -0.109  -0.400   2.218  0.00  0.00    -0.082 A 
ATOM      7  C5  PXY d   1       1.101  -0.709   1.707  0.00  0.00     0.003 A 
ATOM      8  C6  PXY d   1       1.239  -0.848   0.329  0.00  0.00     0.003 A 
ENDROOT
TORSDOF 0
ENDMDL
