MODEL 1
REMARK minimizedAffinity -4.92667532
REMARK minimizedRMSD -1
REMARK  0 active torsions:
REMARK  status: ('A' for Active; 'I' for Inactive)
ROOT
ATOM      1  C4' PXY d   1      -1.157   1.428   2.545  0.00  0.00     0.077 C 
ATOM      2  C1' PXY d   1       0.697  -0.410  -2.613  0.00  0.00     0.077 C 
ATOM      3  C1  PXY d   1       0.202   0.080  -1.266  0.00  0.00    -0.082 A 
ATOM      4  C2  PXY d   1       0.993  -0.003  -0.209  0.00  0.00     0.003 A 
ATOM      5  C3  PXY d   1       0.551   0.406   1.023  0.00  0.00     0.003 A 
ATOM      6  C4  PXY d   1      -0.696   0.955   1.163  0.00  0.00    -0.082 A 
ATOM      7  C5  PXY d   1      -1.505   1.052   0.087  0.00  0.00     0.003 A 
ATOM      8  C6  PXY d   1      -1.052   0.594  -1.146  0.00  0.00     0.003 A 
ENDROOT
TORSDOF 0
ENDMDL
