MODEL 1
REMARK minimizedAffinity -5.84437656
REMARK minimizedRMSD -1
REMARK  0 active torsions:
REMARK  status: ('A' for Active; 'I' for Inactive)
ROOT
ATOM      1  C4' PXY d   1       0.698  -0.565  -1.189  0.00  0.00     0.077 C 
ATOM      2  C1' PXY d   1       0.013   1.428   4.194  0.00  0.00     0.077 C 
ATOM      3  C1  PXY d   1       0.180   0.906   2.780  0.00  0.00    -0.082 A 
ATOM      4  C2  PXY d   1       1.259   0.210   2.463  0.00  0.00     0.003 A 
ATOM      5  C3  PXY d   1       1.441  -0.243   1.182  0.00  0.00     0.003 A 
ATOM      6  C4  PXY d   1       0.483  -0.026   0.228  0.00  0.00    -0.082 A 
ATOM      7  C5  PXY d   1      -0.626   0.674   0.546  0.00  0.00     0.003 A 
ATOM      8  C6  PXY d   1      -0.773   1.160   1.842  0.00  0.00     0.003 A 
ENDROOT
TORSDOF 0
ENDMDL
