MODEL 1
REMARK minimizedAffinity -5.61674595
REMARK minimizedRMSD -1
REMARK  0 active torsions:
REMARK  status: ('A' for Active; 'I' for Inactive)
ROOT
ATOM      1  C4' PXY d   1       2.249   0.359   3.000  0.00  0.00     0.077 C 
ATOM      2  C1' PXY d   1      -2.672   0.107  -0.023  0.00  0.00     0.077 C 
ATOM      3  C1  PXY d   1      -1.387   0.182   0.778  0.00  0.00    -0.082 A 
ATOM      4  C2  PXY d   1      -0.242  -0.162   0.211  0.00  0.00     0.003 A 
ATOM      5  C3  PXY d   1       0.925  -0.131   0.930  0.00  0.00     0.003 A 
ATOM      6  C4  PXY d   1       0.928   0.308   2.227  0.00  0.00    -0.082 A 
ATOM      7  C5  PXY d   1      -0.234   0.671   2.809  0.00  0.00     0.003 A 
ATOM      8  C6  PXY d   1      -1.414   0.593   2.075  0.00  0.00     0.003 A 
ENDROOT
TORSDOF 0
ENDMDL
