MODEL 1
REMARK minimizedAffinity -0.567586541
REMARK minimizedRMSD -1
REMARK  0 active torsions:
REMARK  status: ('A' for Active; 'I' for Inactive)
ROOT
ATOM      1  C4' PXY d   1      -0.370   0.144   4.101  0.00  0.00     0.077 C 
ATOM      2  C1' PXY d   1       0.508  -0.543  -1.572  0.00  0.00     0.077 C 
ATOM      3  C1  PXY d   1       0.287  -0.371  -0.081  0.00  0.00    -0.082 A 
ATOM      4  C2  PXY d   1      -0.900   0.004   0.365  0.00  0.00     0.003 A 
ATOM      5  C3  PXY d   1      -1.108   0.195   1.707  0.00  0.00     0.003 A 
ATOM      6  C4  PXY d   1      -0.105  -0.051   2.605  0.00  0.00    -0.082 A 
ATOM      7  C5  PXY d   1       1.107  -0.444   2.158  0.00  0.00     0.003 A 
ATOM      8  C6  PXY d   1       1.309  -0.593   0.789  0.00  0.00     0.003 A 
ENDROOT
TORSDOF 0
ENDMDL
