MODEL 1
REMARK minimizedAffinity -1.09412754
REMARK minimizedRMSD -1
REMARK  0 active torsions:
REMARK  status: ('A' for Active; 'I' for Inactive)
ROOT
ATOM      1  C4' PXY d   1       0.764  -0.417  -2.681  0.00  0.00     0.077 C 
ATOM      2  C1' PXY d   1      -1.086  -0.151   2.789  0.00  0.00     0.077 C 
ATOM      3  C1  PXY d   1      -0.589  -0.219   1.359  0.00  0.00    -0.082 A 
ATOM      4  C2  PXY d   1      -1.422   0.038   0.364  0.00  0.00     0.003 A 
ATOM      5  C3  PXY d   1      -0.997  -0.050  -0.937  0.00  0.00     0.003 A 
ATOM      6  C4  PXY d   1       0.308  -0.351  -1.221  0.00  0.00    -0.082 A 
ATOM      7  C5  PXY d   1       1.167  -0.604  -0.211  0.00  0.00     0.003 A 
ATOM      8  C6  PXY d   1       0.706  -0.550   1.101  0.00  0.00     0.003 A 
ENDROOT
TORSDOF 0
ENDMDL
