MODEL 1
REMARK minimizedAffinity -3.65925574
REMARK minimizedRMSD -1
REMARK  0 active torsions:
REMARK  status: ('A' for Active; 'I' for Inactive)
ROOT
ATOM      1  C4' PXY d   1       2.111  -0.361   3.015  0.00  0.00     0.077 C 
ATOM      2  C1' PXY d   1      -2.603   0.240  -0.275  0.00  0.00     0.077 C 
ATOM      3  C1  PXY d   1      -1.372   0.091   0.597  0.00  0.00    -0.082 A 
ATOM      4  C2  PXY d   1      -0.237  -0.325   0.059  0.00  0.00     0.003 A 
ATOM      5  C3  PXY d   1       0.878  -0.496   0.839  0.00  0.00     0.003 A 
ATOM      6  C4  PXY d   1       0.845  -0.187   2.172  0.00  0.00    -0.082 A 
ATOM      7  C5  PXY d   1      -0.306   0.248   2.726  0.00  0.00     0.003 A 
ATOM      8  C6  PXY d   1      -1.438   0.376   1.926  0.00  0.00     0.003 A 
ENDROOT
TORSDOF 0
ENDMDL
