MODEL 1
REMARK minimizedAffinity -4.51791906
REMARK minimizedRMSD -1
REMARK  0 active torsions:
REMARK  status: ('A' for Active; 'I' for Inactive)
ROOT
ATOM      1  C4' PXY d   1       1.926  -0.947   2.868  0.00  0.00     0.077 C 
ATOM      2  C1' PXY d   1      -2.736   0.367  -0.288  0.00  0.00     0.077 C 
ATOM      3  C1  PXY d   1      -1.518   0.028   0.550  0.00  0.00    -0.082 A 
ATOM      4  C2  PXY d   1      -0.368  -0.241  -0.046  0.00  0.00     0.003 A 
ATOM      5  C3  PXY d   1       0.734  -0.580   0.695  0.00  0.00     0.003 A 
ATOM      6  C4  PXY d   1       0.673  -0.591   2.063  0.00  0.00    -0.082 A 
ATOM      7  C5  PXY d   1      -0.494  -0.307   2.679  0.00  0.00     0.003 A 
ATOM      8  C6  PXY d   1      -1.612  -0.006   1.907  0.00  0.00     0.003 A 
ENDROOT
TORSDOF 0
ENDMDL
