MODEL 1
REMARK minimizedAffinity -4.94334602
REMARK minimizedRMSD -1
REMARK  0 active torsions:
REMARK  status: ('A' for Active; 'I' for Inactive)
ROOT
ATOM      1  C4' PXY d   1       0.089  -0.387  -1.546  0.00  0.00     0.077 C 
ATOM      2  C1' PXY d   1       0.086   0.888   4.093  0.00  0.00     0.077 C 
ATOM      3  C1  PXY d   1       0.074   0.553   2.614  0.00  0.00    -0.082 A 
ATOM      4  C2  PXY d   1       1.163   0.059   2.047  0.00  0.00     0.003 A 
ATOM      5  C3  PXY d   1       1.179  -0.220   0.704  0.00  0.00     0.003 A 
ATOM      6  C4  PXY d   1       0.053  -0.042  -0.054  0.00  0.00    -0.082 A 
ATOM      7  C5  PXY d   1      -1.065   0.451   0.520  0.00  0.00     0.003 A 
ATOM      8  C6  PXY d   1      -1.048   0.767   1.875  0.00  0.00     0.003 A 
ENDROOT
TORSDOF 0
ENDMDL
