MODEL 1
REMARK minimizedAffinity -5.83286762
REMARK minimizedRMSD -1
REMARK  0 active torsions:
REMARK  status: ('A' for Active; 'I' for Inactive)
ROOT
ATOM      1  C1  DEN d   1      -0.742  -1.842   2.035  0.00  0.00     0.130 A 
ATOM      2  C2  DEN d   1       0.713  -1.914   1.932  0.00  0.00    -0.031 A 
ATOM      3  C3  DEN d   1       1.127  -1.131   0.751  0.00  0.00     0.027 A 
ATOM      4  C4  DEN d   1      -0.336   0.185  -0.917  0.00  0.00     0.027 A 
ATOM      5  C5  DEN d   1      -1.628   0.530  -1.247  0.00  0.00    -0.003 A 
ATOM      6  C6  DEN d   1      -2.708   0.085  -0.533  0.00  0.00     0.001 A 
ATOM      7  C7  DEN d   1      -2.514  -0.695   0.576  0.00  0.00     0.017 A 
ATOM      8  C8  DEN d   1      -1.215  -1.053   0.912  0.00  0.00    -0.094 A 
ATOM      9  C9  DEN d   1      -0.135  -0.583   0.184  0.00  0.00    -0.072 A 
ENDROOT
TORSDOF 0
ENDMDL
