MODEL 1
REMARK minimizedAffinity -3.59403014
REMARK minimizedRMSD -1
REMARK  0 active torsions:
REMARK  status: ('A' for Active; 'I' for Inactive)
ROOT
ATOM      1  C1  DEN d   1      -2.332  -0.828   0.927  0.00  0.00     0.130 A 
ATOM      2  C2  DEN d   1      -3.040  -1.339  -0.244  0.00  0.00    -0.031 A 
ATOM      3  C3  DEN d   1      -2.221  -1.045  -1.437  0.00  0.00     0.027 A 
ATOM      4  C4  DEN d   1       0.065   0.140  -1.585  0.00  0.00     0.027 A 
ATOM      5  C5  DEN d   1       1.056   0.761  -0.858  0.00  0.00    -0.003 A 
ATOM      6  C6  DEN d   1       0.973   0.925   0.499  0.00  0.00     0.001 A 
ATOM      7  C7  DEN d   1      -0.105   0.422   1.179  0.00  0.00     0.017 A 
ATOM      8  C8  DEN d   1      -1.112  -0.199   0.452  0.00  0.00    -0.094 A 
ATOM      9  C9  DEN d   1      -1.004  -0.366  -0.918  0.00  0.00    -0.072 A 
ENDROOT
TORSDOF 0
ENDMDL
