MODEL 1
REMARK minimizedAffinity -6.52394009
REMARK minimizedRMSD -1
REMARK  0 active torsions:
REMARK  status: ('A' for Active; 'I' for Inactive)
ROOT
ATOM      1  C1  DEN d   1      -0.222  -1.843   2.001  0.00  0.00     0.130 A 
ATOM      2  C2  DEN d   1       1.195  -1.846   1.647  0.00  0.00    -0.031 A 
ATOM      3  C3  DEN d   1       1.356  -1.072   0.400  0.00  0.00     0.027 A 
ATOM      4  C4  DEN d   1      -0.442   0.127  -1.009  0.00  0.00     0.027 A 
ATOM      5  C5  DEN d   1      -1.788   0.400  -1.115  0.00  0.00    -0.003 A 
ATOM      6  C6  DEN d   1      -2.703  -0.080  -0.216  0.00  0.00     0.001 A 
ATOM      7  C7  DEN d   1      -2.278  -0.821   0.855  0.00  0.00     0.017 A 
ATOM      8  C8  DEN d   1      -0.924  -1.107   0.964  0.00  0.00    -0.094 A 
ATOM      9  C9  DEN d   1      -0.013  -0.602   0.052  0.00  0.00    -0.072 A 
ENDROOT
TORSDOF 0
ENDMDL
