MODEL 1
REMARK minimizedAffinity -3.40933561
REMARK minimizedRMSD -1
REMARK  0 active torsions:
REMARK  status: ('A' for Active; 'I' for Inactive)
ROOT
ATOM      1  C1  DEN d   1       0.806  -0.010   0.625  0.00  0.00     0.130 A 
ATOM      2  C2  DEN d   1       1.437  -0.115  -0.688  0.00  0.00    -0.031 A 
ATOM      3  C3  DEN d   1       0.368  -0.180  -1.704  0.00  0.00     0.027 A 
ATOM      4  C4  DEN d   1      -2.190  -0.125  -1.376  0.00  0.00     0.027 A 
ATOM      5  C5  DEN d   1      -3.200  -0.056  -0.442  0.00  0.00    -0.003 A 
ATOM      6  C6  DEN d   1      -2.949  -0.002   0.903  0.00  0.00     0.001 A 
ATOM      7  C7  DEN d   1      -1.655   0.030   1.351  0.00  0.00     0.017 A 
ATOM      8  C8  DEN d   1      -0.631  -0.047   0.417  0.00  0.00    -0.094 A 
ATOM      9  C9  DEN d   1      -0.905  -0.088  -0.940  0.00  0.00    -0.072 A 
ENDROOT
TORSDOF 0
ENDMDL
