MODEL 1
REMARK minimizedAffinity -3.40876198
REMARK minimizedRMSD -1
REMARK  0 active torsions:
REMARK  status: ('A' for Active; 'I' for Inactive)
ROOT
ATOM      1  C1  DEN d   1      -0.097   1.279   1.569  0.00  0.00     0.130 A 
ATOM      2  C2  DEN d   1       1.170   1.298   0.843  0.00  0.00    -0.031 A 
ATOM      3  C3  DEN d   1       1.005   0.492  -0.383  0.00  0.00     0.027 A 
ATOM      4  C4  DEN d   1      -1.079  -0.772  -1.226  0.00  0.00     0.027 A 
ATOM      5  C5  DEN d   1      -2.389  -1.091  -0.945  0.00  0.00    -0.003 A 
ATOM      6  C6  DEN d   1      -3.011  -0.673   0.202  0.00  0.00     0.001 A 
ATOM      7  C7  DEN d   1      -2.337   0.124   1.088  0.00  0.00     0.017 A 
ATOM      8  C8  DEN d   1      -1.014   0.443   0.815  0.00  0.00    -0.094 A 
ATOM      9  C9  DEN d   1      -0.406   0.022  -0.356  0.00  0.00    -0.072 A 
ENDROOT
TORSDOF 0
ENDMDL
