MODEL 1
REMARK minimizedAffinity -3.80845451
REMARK minimizedRMSD -1
REMARK  0 active torsions:
REMARK  status: ('A' for Active; 'I' for Inactive)
ROOT
ATOM      1  C1  DEN d   1      -2.086  -0.759   0.935  0.00  0.00     0.130 A 
ATOM      2  C2  DEN d   1      -2.891  -0.911  -0.274  0.00  0.00    -0.031 A 
ATOM      3  C3  DEN d   1      -2.011  -0.692  -1.440  0.00  0.00     0.027 A 
ATOM      4  C4  DEN d   1       0.508  -0.140  -1.489  0.00  0.00     0.027 A 
ATOM      5  C5  DEN d   1       1.620   0.100  -0.713  0.00  0.00    -0.003 A 
ATOM      6  C6  DEN d   1       1.568   0.105   0.656  0.00  0.00     0.001 A 
ATOM      7  C7  DEN d   1       0.388  -0.181   1.291  0.00  0.00     0.017 A 
ATOM      8  C8  DEN d   1      -0.739  -0.417   0.515  0.00  0.00    -0.094 A 
ATOM      9  C9  DEN d   1      -0.663  -0.429  -0.867  0.00  0.00    -0.072 A 
ENDROOT
TORSDOF 0
ENDMDL
