MODEL 1
REMARK minimizedAffinity -6.32208157
REMARK minimizedRMSD -1
REMARK  0 active torsions:
REMARK  status: ('A' for Active; 'I' for Inactive)
ROOT
ATOM      1  C1  DEN d   1       0.285   0.437  -1.593  0.00  0.00     0.130 A 
ATOM      2  C2  DEN d   1       1.434   0.113  -0.752  0.00  0.00    -0.031 A 
ATOM      3  C3  DEN d   1       0.931  -0.522   0.483  0.00  0.00     0.027 A 
ATOM      4  C4  DEN d   1      -1.502  -1.036   1.168  0.00  0.00     0.027 A 
ATOM      5  C5  DEN d   1      -2.821  -0.934   0.785  0.00  0.00    -0.003 A 
ATOM      6  C6  DEN d   1      -3.196  -0.342  -0.392  0.00  0.00     0.001 A 
ATOM      7  C7  DEN d   1      -2.239   0.130  -1.249  0.00  0.00     0.017 A 
ATOM      8  C8  DEN d   1      -0.907   0.038  -0.867  0.00  0.00    -0.094 A 
ATOM      9  C9  DEN d   1      -0.547  -0.575   0.321  0.00  0.00    -0.072 A 
ENDROOT
TORSDOF 0
ENDMDL
