MODEL 1
REMARK minimizedAffinity -6.20048618
REMARK minimizedRMSD -1
REMARK  0 active torsions:
REMARK  status: ('A' for Active; 'I' for Inactive)
ROOT
ATOM      1  C1  DEN d   1      -1.972  -0.511  -1.502  0.00  0.00     0.130 A 
ATOM      2  C2  DEN d   1      -3.073  -1.357  -1.051  0.00  0.00    -0.031 A 
ATOM      3  C3  DEN d   1      -2.613  -2.113   0.132  0.00  0.00     0.027 A 
ATOM      4  C4  DEN d   1      -0.316  -2.050   1.304  0.00  0.00     0.027 A 
ATOM      5  C5  DEN d   1       0.943  -1.493   1.277  0.00  0.00    -0.003 A 
ATOM      6  C6  DEN d   1       1.327  -0.602   0.310  0.00  0.00     0.001 A 
ATOM      7  C7  DEN d   1       0.427  -0.207  -0.645  0.00  0.00     0.017 A 
ATOM      8  C8  DEN d   1      -0.842  -0.771  -0.628  0.00  0.00    -0.094 A 
ATOM      9  C9  DEN d   1      -1.215  -1.661   0.365  0.00  0.00    -0.072 A 
ENDROOT
TORSDOF 0
ENDMDL
