MODEL 1
REMARK minimizedAffinity -4.13386631
REMARK minimizedRMSD -1
REMARK  0 active torsions:
REMARK  status: ('A' for Active; 'I' for Inactive)
ROOT
ATOM      1  C1  DEN d   1      -0.129   0.186  -1.100  0.00  0.00     0.130 A 
ATOM      2  C2  DEN d   1       1.051   0.188  -0.240  0.00  0.00    -0.031 A 
ATOM      3  C3  DEN d   1       0.903  -0.905   0.741  0.00  0.00     0.027 A 
ATOM      4  C4  DEN d   1      -1.027  -2.596   1.008  0.00  0.00     0.027 A 
ATOM      5  C5  DEN d   1      -2.253  -2.986   0.517  0.00  0.00    -0.003 A 
ATOM      6  C6  DEN d   1      -2.869  -2.330  -0.516  0.00  0.00     0.001 A 
ATOM      7  C7  DEN d   1      -2.238  -1.276  -1.123  0.00  0.00     0.017 A 
ATOM      8  C8  DEN d   1      -1.004  -0.873  -0.629  0.00  0.00    -0.094 A 
ATOM      9  C9  DEN d   1      -0.393  -1.556   0.409  0.00  0.00    -0.072 A 
ENDROOT
TORSDOF 0
ENDMDL
