MODEL 1
REMARK minimizedAffinity -2.88863826
REMARK minimizedRMSD -1
REMARK  0 active torsions:
REMARK  status: ('A' for Active; 'I' for Inactive)
ROOT
ATOM      1  C1  DEN d   1       2.436   4.042   0.984  0.00  0.00     0.130 A 
ATOM      2  C2  DEN d   1       1.936   2.740   1.415  0.00  0.00    -0.031 A 
ATOM      3  C3  DEN d   1       2.546   1.708   0.553  0.00  0.00     0.027 A 
ATOM      4  C4  DEN d   1       4.212   1.998  -1.394  0.00  0.00     0.027 A 
ATOM      5  C5  DEN d   1       4.920   2.916  -2.139  0.00  0.00    -0.003 A 
ATOM      6  C6  DEN d   1       4.823   4.264  -1.919  0.00  0.00     0.001 A 
ATOM      7  C7  DEN d   1       4.036   4.732  -0.900  0.00  0.00     0.017 A 
ATOM      8  C8  DEN d   1       3.314   3.813  -0.150  0.00  0.00    -0.094 A 
ATOM      9  C9  DEN d   1       3.434   2.453  -0.380  0.00  0.00    -0.072 A 
ENDROOT
TORSDOF 0
ENDMDL
