MODEL 1
REMARK minimizedAffinity -4.55617094
REMARK minimizedRMSD -1
REMARK  0 active torsions:
REMARK  status: ('A' for Active; 'I' for Inactive)
ROOT
ATOM      1  C1  DEN d   1       2.535   4.113   1.223  0.00  0.00     0.130 A 
ATOM      2  C2  DEN d   1       1.992   2.878   1.780  0.00  0.00    -0.031 A 
ATOM      3  C3  DEN d   1       2.160   1.811   0.773  0.00  0.00     0.027 A 
ATOM      4  C4  DEN d   1       3.209   1.950  -1.579  0.00  0.00     0.027 A 
ATOM      5  C5  DEN d   1       3.798   2.791  -2.497  0.00  0.00    -0.003 A 
ATOM      6  C6  DEN d   1       3.975   4.127  -2.255  0.00  0.00     0.001 A 
ATOM      7  C7  DEN d   1       3.600   4.654  -1.048  0.00  0.00     0.017 A 
ATOM      8  C8  DEN d   1       2.998   3.814  -0.120  0.00  0.00    -0.094 A 
ATOM      9  C9  DEN d   1       2.839   2.463  -0.378  0.00  0.00    -0.072 A 
ENDROOT
TORSDOF 0
ENDMDL
