MODEL 1
REMARK minimizedAffinity -3.74055743
REMARK minimizedRMSD -1
REMARK  0 active torsions:
REMARK  status: ('A' for Active; 'I' for Inactive)
ROOT
ATOM      1  C1  DEN d   1       2.307   0.925   0.795  0.00  0.00     0.130 A 
ATOM      2  C2  DEN d   1       2.411   1.978  -0.211  0.00  0.00    -0.031 A 
ATOM      3  C3  DEN d   1       1.300   1.805  -1.169  0.00  0.00     0.027 A 
ATOM      4  C4  DEN d   1      -0.563   0.021  -1.187  0.00  0.00     0.027 A 
ATOM      5  C5  DEN d   1      -1.060  -1.090  -0.542  0.00  0.00    -0.003 A 
ATOM      6  C6  DEN d   1      -0.455  -1.623   0.565  0.00  0.00     0.001 A 
ATOM      7  C7  DEN d   1       0.658  -1.018   1.088  0.00  0.00     0.017 A 
ATOM      8  C8  DEN d   1       1.169   0.098   0.439  0.00  0.00    -0.094 A 
ATOM      9  C9  DEN d   1       0.536   0.629  -0.672  0.00  0.00    -0.072 A 
ENDROOT
TORSDOF 0
ENDMDL
