MODEL 1
REMARK minimizedAffinity -4.75282383
REMARK minimizedRMSD -1
REMARK  0 active torsions:
REMARK  status: ('A' for Active; 'I' for Inactive)
ROOT
ATOM      1  C1  DEN d   1      -1.908  -2.949   0.347  0.00  0.00     0.130 A 
ATOM      2  C2  DEN d   1      -0.954  -3.305   1.394  0.00  0.00    -0.031 A 
ATOM      3  C3  DEN d   1       0.206  -2.399   1.281  0.00  0.00     0.027 A 
ATOM      4  C4  DEN d   1       0.614  -0.485  -0.400  0.00  0.00     0.027 A 
ATOM      5  C5  DEN d   1       0.093   0.187  -1.483  0.00  0.00    -0.003 A 
ATOM      6  C6  DEN d   1      -1.106  -0.158  -2.049  0.00  0.00     0.001 A 
ATOM      7  C7  DEN d   1      -1.846  -1.174  -1.505  0.00  0.00     0.017 A 
ATOM      8  C8  DEN d   1      -1.324  -1.862  -0.417  0.00  0.00    -0.094 A 
ATOM      9  C9  DEN d   1      -0.115  -1.490   0.148  0.00  0.00    -0.072 A 
ENDROOT
TORSDOF 0
ENDMDL
