MODEL 1
REMARK minimizedAffinity -4.74795341
REMARK minimizedRMSD -1
REMARK  0 active torsions:
REMARK  status: ('A' for Active; 'I' for Inactive)
ROOT
ATOM      1  C1  DEN d   1       3.744   4.843  -1.257  0.00  0.00     0.130 A 
ATOM      2  C2  DEN d   1       4.006   4.038  -2.447  0.00  0.00    -0.031 A 
ATOM      3  C3  DEN d   1       3.554   2.659  -2.174  0.00  0.00     0.027 A 
ATOM      4  C4  DEN d   1       2.477   1.698  -0.036  0.00  0.00     0.027 A 
ATOM      5  C5  DEN d   1       2.065   1.995   1.244  0.00  0.00    -0.003 A 
ATOM      6  C6  DEN d   1       2.213   3.243   1.788  0.00  0.00     0.001 A 
ATOM      7  C7  DEN d   1       2.748   4.254   1.033  0.00  0.00     0.017 A 
ATOM      8  C8  DEN d   1       3.172   3.960  -0.257  0.00  0.00    -0.094 A 
ATOM      9  C9  DEN d   1       3.002   2.695  -0.793  0.00  0.00    -0.072 A 
ENDROOT
TORSDOF 0
ENDMDL
