MODEL 1
REMARK minimizedAffinity 5.09435129
REMARK minimizedRMSD -1
REMARK  0 active torsions:
REMARK  status: ('A' for Active; 'I' for Inactive)
ROOT
ATOM      1  C4' PXY d   1      -3.061  -0.364  -2.612  0.00  0.00     0.077 C 
ATOM      2  C1' PXY d   1       1.491   0.738  -6.000  0.00  0.00     0.077 C 
ATOM      3  C1  PXY d   1       0.302   0.457  -5.102  0.00  0.00    -0.082 A 
ATOM      4  C2  PXY d   1      -0.340  -0.695  -5.208  0.00  0.00     0.003 A 
ATOM      5  C3  PXY d   1      -1.437  -0.952  -4.427  0.00  0.00     0.003 A 
ATOM      6  C4  PXY d   1      -1.849  -0.042  -3.490  0.00  0.00    -0.082 A 
ATOM      7  C5  PXY d   1      -1.193   1.132  -3.369  0.00  0.00     0.003 A 
ATOM      8  C6  PXY d   1      -0.107   1.390  -4.200  0.00  0.00     0.003 A 
ENDROOT
TORSDOF 0
ENDMDL
