MODEL 1
REMARK minimizedAffinity 2.04716063
REMARK minimizedRMSD -1
REMARK  0 active torsions:
REMARK  status: ('A' for Active; 'I' for Inactive)
ROOT
ATOM      1  C4' PXY d   1      -1.406  -5.660  -5.983  0.00  0.00     0.077 C 
ATOM      2  C1' PXY d   1       2.141  -4.064  -1.707  0.00  0.00     0.077 C 
ATOM      3  C1  PXY d   1       1.220  -4.481  -2.837  0.00  0.00    -0.082 A 
ATOM      4  C2  PXY d   1      -0.086  -4.309  -2.714  0.00  0.00     0.003 A 
ATOM      5  C3  PXY d   1      -0.935  -4.710  -3.713  0.00  0.00     0.003 A 
ATOM      6  C4  PXY d   1      -0.438  -5.245  -4.872  0.00  0.00    -0.082 A 
ATOM      7  C5  PXY d   1       0.894  -5.414  -5.009  0.00  0.00     0.003 A 
ATOM      8  C6  PXY d   1       1.736  -5.038  -3.967  0.00  0.00     0.003 A 
ENDROOT
TORSDOF 0
ENDMDL
