MODEL 1
REMARK minimizedAffinity 0.201551259
REMARK minimizedRMSD -1
REMARK  0 active torsions:
REMARK  status: ('A' for Active; 'I' for Inactive)
ROOT
ATOM      1  C4' PXY d   1      -3.457  -2.022   2.973  0.00  0.00     0.077 C 
ATOM      2  C1' PXY d   1       1.890  -0.826   4.816  0.00  0.00     0.077 C 
ATOM      3  C1  PXY d   1       0.486  -1.127   4.331  0.00  0.00    -0.082 A 
ATOM      4  C2  PXY d   1      -0.116  -2.239   4.720  0.00  0.00     0.003 A 
ATOM      5  C3  PXY d   1      -1.374  -2.542   4.265  0.00  0.00     0.003 A 
ATOM      6  C4  PXY d   1      -2.043  -1.673   3.446  0.00  0.00    -0.082 A 
ATOM      7  C5  PXY d   1      -1.440  -0.531   3.053  0.00  0.00     0.003 A 
ATOM      8  C6  PXY d   1      -0.147  -0.261   3.493  0.00  0.00     0.003 A 
ENDROOT
TORSDOF 0
ENDMDL
