MODEL 1
REMARK minimizedAffinity 1.78771067
REMARK minimizedRMSD -1
REMARK  0 active torsions:
REMARK  status: ('A' for Active; 'I' for Inactive)
ROOT
ATOM      1  C4' PXY d   1       5.284  -0.551  -0.761  0.00  0.00     0.077 C 
ATOM      2  C1' PXY d   1       5.238  -2.995  -6.000  0.00  0.00     0.077 C 
ATOM      3  C1  PXY d   1       5.238  -2.359  -4.623  0.00  0.00    -0.082 A 
ATOM      4  C2  PXY d   1       5.963  -1.274  -4.404  0.00  0.00     0.003 A 
ATOM      5  C3  PXY d   1       6.000  -0.705  -3.157  0.00  0.00     0.003 A 
ATOM      6  C4  PXY d   1       5.246  -1.221  -2.137  0.00  0.00    -0.082 A 
ATOM      7  C5  PXY d   1       4.495  -2.321  -2.356  0.00  0.00     0.003 A 
ATOM      8  C6  PXY d   1       4.504  -2.908  -3.618  0.00  0.00     0.003 A 
ENDROOT
TORSDOF 0
ENDMDL
