MODEL 1
REMARK minimizedAffinity 7.56207323
REMARK minimizedRMSD -1
REMARK  0 active torsions:
REMARK  status: ('A' for Active; 'I' for Inactive)
ROOT
ATOM      1  C4' PXY d   1       4.428  -0.759  -0.715  0.00  0.00     0.077 C 
ATOM      2  C1' PXY d   1       5.057  -3.022  -5.997  0.00  0.00     0.077 C 
ATOM      3  C1  PXY d   1       4.903  -2.434  -4.608  0.00  0.00    -0.082 A 
ATOM      4  C2  PXY d   1       3.699  -2.114  -4.163  0.00  0.00     0.003 A 
ATOM      5  C3  PXY d   1       3.545  -1.552  -2.921  0.00  0.00     0.003 A 
ATOM      6  C4  PXY d   1       4.630  -1.364  -2.107  0.00  0.00    -0.082 A 
ATOM      7  C5  PXY d   1       5.860  -1.698  -2.550  0.00  0.00     0.003 A 
ATOM      8  C6  PXY d   1       6.000  -2.229  -3.829  0.00  0.00     0.003 A 
ENDROOT
TORSDOF 0
ENDMDL
