MODEL 1
REMARK minimizedAffinity -2.75888968
REMARK minimizedRMSD -1
REMARK  0 active torsions:
REMARK  status: ('A' for Active; 'I' for Inactive)
ROOT
ATOM      1  C4' PXY d   1       2.009  -1.778  -1.346  0.00  0.00     0.077 C 
ATOM      2  C1' PXY d   1      -1.939  -2.065  -5.558  0.00  0.00     0.077 C 
ATOM      3  C1  PXY d   1      -0.910  -1.999  -4.447  0.00  0.00    -0.082 A 
ATOM      4  C2  PXY d   1      -0.211  -0.890  -4.267  0.00  0.00     0.003 A 
ATOM      5  C3  PXY d   1       0.746  -0.824  -3.288  0.00  0.00     0.003 A 
ATOM      6  C4  PXY d   1       0.953  -1.887  -2.449  0.00  0.00    -0.082 A 
ATOM      7  C5  PXY d   1       0.236  -3.018  -2.619  0.00  0.00     0.003 A 
ATOM      8  C6  PXY d   1      -0.702  -3.079  -3.645  0.00  0.00     0.003 A 
ENDROOT
TORSDOF 0
ENDMDL
