MODEL 1
REMARK minimizedAffinity -0.829109251
REMARK minimizedRMSD -1
REMARK  0 active torsions:
REMARK  status: ('A' for Active; 'I' for Inactive)
ROOT
ATOM      1  C4' PXY d   1      -1.191  -2.258   3.456  0.00  0.00     0.077 C 
ATOM      2  C1' PXY d   1       2.398   1.320   0.674  0.00  0.00     0.077 C 
ATOM      3  C1  PXY d   1       1.466   0.372   1.403  0.00  0.00    -0.082 A 
ATOM      4  C2  PXY d   1       0.158   0.558   1.332  0.00  0.00     0.003 A 
ATOM      5  C3  PXY d   1      -0.698  -0.270   2.011  0.00  0.00     0.003 A 
ATOM      6  C4  PXY d   1      -0.212  -1.332   2.728  0.00  0.00    -0.082 A 
ATOM      7  C5  PXY d   1       1.120  -1.534   2.796  0.00  0.00     0.003 A 
ATOM      8  C6  PXY d   1       1.974  -0.657   2.133  0.00  0.00     0.003 A 
ENDROOT
TORSDOF 0
ENDMDL
