MODEL 1
REMARK minimizedAffinity 8.70028019
REMARK minimizedRMSD -1
REMARK  0 active torsions:
REMARK  status: ('A' for Active; 'I' for Inactive)
ROOT
ATOM      1  C4' PXY d   1      -1.504   4.135  -2.992  0.00  0.00     0.077 C 
ATOM      2  C1' PXY d   1      -0.947   5.653   2.558  0.00  0.00     0.077 C 
ATOM      3  C1  PXY d   1      -1.094   5.243   1.106  0.00  0.00    -0.082 A 
ATOM      4  C2  PXY d   1      -0.571   6.000   0.156  0.00  0.00     0.003 A 
ATOM      5  C3  PXY d   1      -0.723   5.660  -1.164  0.00  0.00     0.003 A 
ATOM      6  C4  PXY d   1      -1.371   4.505  -1.512  0.00  0.00    -0.082 A 
ATOM      7  C5  PXY d   1      -1.899   3.722  -0.547  0.00  0.00     0.003 A 
ATOM      8  C6  PXY d   1      -1.769   4.106   0.784  0.00  0.00     0.003 A 
ENDROOT
TORSDOF 0
ENDMDL
