MODEL 1
REMARK minimizedAffinity 4.40318441
REMARK minimizedRMSD -1
REMARK  0 active torsions:
REMARK  status: ('A' for Active; 'I' for Inactive)
ROOT
ATOM      1  C4' PXY d   1      -0.038  -1.756   1.530  0.00  0.00     0.077 C 
ATOM      2  C1' PXY d   1       4.073  -0.757   5.468  0.00  0.00     0.077 C 
ATOM      3  C1  PXY d   1       2.997  -1.007   4.430  0.00  0.00    -0.082 A 
ATOM      4  C2  PXY d   1       2.037  -1.883   4.681  0.00  0.00     0.003 A 
ATOM      5  C3  PXY d   1       1.075  -2.145   3.741  0.00  0.00     0.003 A 
ATOM      6  C4  PXY d   1       1.063  -1.464   2.553  0.00  0.00    -0.082 A 
ATOM      7  C5  PXY d   1       2.033  -0.562   2.294  0.00  0.00     0.003 A 
ATOM      8  C6  PXY d   1       3.025  -0.340   3.245  0.00  0.00     0.003 A 
ENDROOT
TORSDOF 0
ENDMDL
