MODEL 1
REMARK minimizedAffinity 5.52798271
REMARK minimizedRMSD -1
REMARK  0 active torsions:
REMARK  status: ('A' for Active; 'I' for Inactive)
ROOT
ATOM      1  C4' PXY d   1       4.384  -1.196   5.187  0.00  0.00     0.077 C 
ATOM      2  C1' PXY d   1      -0.532  -1.148   2.146  0.00  0.00     0.077 C 
ATOM      3  C1  PXY d   1       0.753  -1.151   2.951  0.00  0.00    -0.082 A 
ATOM      4  C2  PXY d   1       1.850  -1.676   2.430  0.00  0.00     0.003 A 
ATOM      5  C3  PXY d   1       3.012  -1.716   3.156  0.00  0.00     0.003 A 
ATOM      6  C4  PXY d   1       3.066  -1.163   4.407  0.00  0.00    -0.082 A 
ATOM      7  C5  PXY d   1       1.954  -0.615   4.942  0.00  0.00     0.003 A 
ATOM      8  C6  PXY d   1       0.774  -0.623   4.204  0.00  0.00     0.003 A 
ENDROOT
TORSDOF 0
ENDMDL
