MODEL 1
REMARK minimizedAffinity -4.58571863
REMARK minimizedRMSD -1
REMARK  0 active torsions:
REMARK  status: ('A' for Active; 'I' for Inactive)
ROOT
ATOM      1  C4' PXY d   1      -1.106  -2.754  -1.144  0.00  0.00     0.077 C 
ATOM      2  C1' PXY d   1       1.918  -6.000  -4.849  0.00  0.00     0.077 C 
ATOM      3  C1  PXY d   1       1.118  -5.159  -3.874  0.00  0.00    -0.082 A 
ATOM      4  C2  PXY d   1       1.058  -3.847  -4.038  0.00  0.00     0.003 A 
ATOM      5  C3  PXY d   1       0.365  -3.068  -3.147  0.00  0.00     0.003 A 
ATOM      6  C4  PXY d   1      -0.318  -3.643  -2.109  0.00  0.00    -0.082 A 
ATOM      7  C5  PXY d   1      -0.270  -4.982  -1.941  0.00  0.00     0.003 A 
ATOM      8  C6  PXY d   1       0.473  -5.751  -2.833  0.00  0.00     0.003 A 
ENDROOT
TORSDOF 0
ENDMDL
