MODEL 1
REMARK minimizedAffinity 2.81219602
REMARK minimizedRMSD -1
REMARK  2 active torsions:
REMARK  status: ('A' for Active; 'I' for Inactive)
REMARK    1  A    between atoms: C1_2  and  C2_3 
REMARK    2  A    between atoms: C2_3  and  C3_4 
ROOT
ATOM      1  C3  UNL d   1       3.713  -2.648  -3.111  0.00  0.00    -0.075 A 
ATOM      2  C4  UNL d   1       4.952  -1.992  -3.071  0.00  0.00     0.002 A 
ATOM      3  C5  UNL d   1       5.946  -2.298  -4.001  0.00  0.00     0.002 A 
ATOM      4  C6  UNL d   1       5.718  -3.268  -4.975  0.00  0.00    -0.004 A 
ATOM      5  C7  UNL d   1       4.497  -3.938  -5.014  0.00  0.00     0.002 A 
ATOM      6  C8  UNL d   1       3.499  -3.631  -4.087  0.00  0.00     0.002 A 
ENDROOT
BRANCH   1   7
ATOM      7  C2  UNL d   1       2.623  -2.301  -2.125  0.00  0.00     0.056 C 
BRANCH   7   8
ATOM      8  C1  UNL d   1       1.273  -2.958  -2.432  0.00  0.00     0.007 C 
ATOM      9  C   UNL d   1       0.873  -4.014  -1.410  0.00  0.00     0.009 C 
ENDBRANCH   7   8
ENDBRANCH   1   7
TORSDOF 2
ENDMDL
