MODEL 1
REMARK minimizedAffinity 8.11518383
REMARK minimizedRMSD -1
REMARK  2 active torsions:
REMARK  status: ('A' for Active; 'I' for Inactive)
REMARK    1  A    between atoms: C1_2  and  C2_3 
REMARK    2  A    between atoms: C2_3  and  C3_4 
ROOT
ATOM      1  C3  UNL d   1      -4.387   3.276  -5.209  0.00  0.00    -0.075 A 
ATOM      2  C4  UNL d   1      -4.350   3.268  -3.807  0.00  0.00     0.002 A 
ATOM      3  C5  UNL d   1      -4.377   4.464  -3.090  0.00  0.00     0.002 A 
ATOM      4  C6  UNL d   1      -4.432   5.682  -3.764  0.00  0.00    -0.004 A 
ATOM      5  C7  UNL d   1      -4.454   5.703  -5.157  0.00  0.00     0.002 A 
ATOM      6  C8  UNL d   1      -4.430   4.507  -5.877  0.00  0.00     0.002 A 
ENDROOT
BRANCH   1   7
ATOM      7  C2  UNL d   1      -4.388   1.984  -5.990  0.00  0.00     0.056 C 
BRANCH   7   8
ATOM      8  C1  UNL d   1      -3.338   0.971  -5.520  0.00  0.00     0.007 C 
ATOM      9  C   UNL d   1      -3.617  -0.448  -5.997  0.00  0.00     0.009 C 
ENDBRANCH   7   8
ENDBRANCH   1   7
TORSDOF 2
ENDMDL
