MODEL 1
REMARK minimizedAffinity 17.6616001
REMARK minimizedRMSD -1
REMARK  2 active torsions:
REMARK  status: ('A' for Active; 'I' for Inactive)
REMARK    1  A    between atoms: C1_2  and  C2_3 
REMARK    2  A    between atoms: C2_3  and  C3_4 
ROOT
ATOM      1  C3  UNL d   1       0.163   1.293   3.020  0.00  0.00    -0.075 A 
ATOM      2  C4  UNL d   1       1.216   1.440   2.106  0.00  0.00     0.002 A 
ATOM      3  C5  UNL d   1       0.971   1.893   0.809  0.00  0.00     0.002 A 
ATOM      4  C6  UNL d   1      -0.328   2.194   0.407  0.00  0.00    -0.004 A 
ATOM      5  C7  UNL d   1      -1.384   2.035   1.301  0.00  0.00     0.002 A 
ATOM      6  C8  UNL d   1      -1.142   1.586   2.601  0.00  0.00     0.002 A 
ENDROOT
BRANCH   1   7
ATOM      7  C2  UNL d   1       0.425   0.831   4.434  0.00  0.00     0.056 C 
BRANCH   7   8
ATOM      8  C1  UNL d   1       0.938  -0.609   4.534  0.00  0.00     0.007 C 
ATOM      9  C   UNL d   1       1.092  -1.092   5.970  0.00  0.00     0.009 C 
ENDBRANCH   7   8
ENDBRANCH   1   7
TORSDOF 2
ENDMDL
