MODEL 1
REMARK minimizedAffinity 16.9872341
REMARK minimizedRMSD -1
REMARK  2 active torsions:
REMARK  status: ('A' for Active; 'I' for Inactive)
REMARK    1  A    between atoms: C1_2  and  C2_3 
REMARK    2  A    between atoms: C2_3  and  C3_4 
ROOT
ATOM      1  C3  UNL d   1      -0.010   2.372   0.013  0.00  0.00    -0.075 A 
ATOM      2  C4  UNL d   1      -0.690   1.755  -1.047  0.00  0.00     0.002 A 
ATOM      3  C5  UNL d   1      -1.072   2.492  -2.168  0.00  0.00     0.002 A 
ATOM      4  C6  UNL d   1      -0.788   3.854  -2.239  0.00  0.00    -0.004 A 
ATOM      5  C7  UNL d   1      -0.128   4.481  -1.185  0.00  0.00     0.002 A 
ATOM      6  C8  UNL d   1       0.260   3.745  -0.063  0.00  0.00     0.002 A 
ENDROOT
BRANCH   1   7
ATOM      7  C2  UNL d   1       0.432   1.573   1.217  0.00  0.00     0.056 C 
BRANCH   7   8
ATOM      8  C1  UNL d   1      -0.575   1.576   2.371  0.00  0.00     0.007 C 
ATOM      9  C   UNL d   1       0.012   1.068   3.681  0.00  0.00     0.009 C 
ENDBRANCH   7   8
ENDBRANCH   1   7
TORSDOF 2
ENDMDL
