MODEL 1
REMARK minimizedAffinity 13.3971605
REMARK minimizedRMSD -1
REMARK  2 active torsions:
REMARK  status: ('A' for Active; 'I' for Inactive)
REMARK    1  A    between atoms: C1_2  and  C2_3 
REMARK    2  A    between atoms: C2_3  and  C3_4 
ROOT
ATOM      1  C3  UNL d   1       1.417  -1.179   4.205  0.00  0.00    -0.075 A 
ATOM      2  C4  UNL d   1       0.410  -1.163   5.181  0.00  0.00     0.002 A 
ATOM      3  C5  UNL d   1      -0.500  -0.108   5.242  0.00  0.00     0.002 A 
ATOM      4  C6  UNL d   1      -0.409   0.948   4.338  0.00  0.00    -0.004 A 
ATOM      5  C7  UNL d   1       0.597   0.951   3.374  0.00  0.00     0.002 A 
ATOM      6  C8  UNL d   1       1.507  -0.106   3.308  0.00  0.00     0.002 A 
ENDROOT
BRANCH   1   7
ATOM      7  C2  UNL d   1       2.387  -2.333   4.114  0.00  0.00     0.056 C 
BRANCH   7   8
ATOM      8  C1  UNL d   1       3.814  -1.984   4.549  0.00  0.00     0.007 C 
ATOM      9  C   UNL d   1       4.111  -2.362   5.994  0.00  0.00     0.009 C 
ENDBRANCH   7   8
ENDBRANCH   1   7
TORSDOF 2
ENDMDL
