MODEL 1
REMARK minimizedAffinity 0.734979272
REMARK minimizedRMSD -1
REMARK  2 active torsions:
REMARK  status: ('A' for Active; 'I' for Inactive)
REMARK    1  A    between atoms: C1_2  and  C2_3 
REMARK    2  A    between atoms: C2_3  and  C3_4 
ROOT
ATOM      1  C3  UNL d   1       0.238  -0.647  -1.361  0.00  0.00    -0.075 A 
ATOM      2  C4  UNL d   1      -0.649   0.343  -0.916  0.00  0.00     0.002 A 
ATOM      3  C5  UNL d   1      -1.010   1.399  -1.753  0.00  0.00     0.002 A 
ATOM      4  C6  UNL d   1      -0.482   1.484  -3.040  0.00  0.00    -0.004 A 
ATOM      5  C7  UNL d   1       0.414   0.515  -3.487  0.00  0.00     0.002 A 
ATOM      6  C8  UNL d   1       0.773  -0.545  -2.652  0.00  0.00     0.002 A 
ENDROOT
BRANCH   1   7
ATOM      7  C2  UNL d   1       0.610  -1.808  -0.470  0.00  0.00     0.056 C 
BRANCH   7   8
ATOM      8  C1  UNL d   1      -0.319  -3.020  -0.604  0.00  0.00     0.007 C 
ATOM      9  C   UNL d   1       0.217  -4.086  -1.550  0.00  0.00     0.009 C 
ENDBRANCH   7   8
ENDBRANCH   1   7
TORSDOF 2
ENDMDL
