MODEL 1
REMARK minimizedAffinity 6.9635191
REMARK minimizedRMSD -1
REMARK  2 active torsions:
REMARK  status: ('A' for Active; 'I' for Inactive)
REMARK    1  A    between atoms: C1_2  and  C2_3 
REMARK    2  A    between atoms: C2_3  and  C3_4 
ROOT
ATOM      1  C3  UNL d   1       4.508  -1.898  -3.431  0.00  0.00    -0.075 A 
ATOM      2  C4  UNL d   1       3.969  -1.853  -2.138  0.00  0.00     0.002 A 
ATOM      3  C5  UNL d   1       2.657  -1.425  -1.931  0.00  0.00     0.002 A 
ATOM      4  C6  UNL d   1       1.873  -1.027  -3.012  0.00  0.00    -0.004 A 
ATOM      5  C7  UNL d   1       2.404  -1.051  -4.300  0.00  0.00     0.002 A 
ATOM      6  C8  UNL d   1       3.714  -1.484  -4.509  0.00  0.00     0.002 A 
ENDROOT
BRANCH   1   7
ATOM      7  C2  UNL d   1       5.917  -2.389  -3.664  0.00  0.00     0.056 C 
BRANCH   7   8
ATOM      8  C1  UNL d   1       6.000  -3.842  -4.144  0.00  0.00     0.007 C 
ATOM      9  C   UNL d   1       5.990  -4.851  -3.004  0.00  0.00     0.009 C 
ENDBRANCH   7   8
ENDBRANCH   1   7
TORSDOF 2
ENDMDL
