MODEL 1
REMARK minimizedAffinity 2.97879553
REMARK minimizedRMSD -1
REMARK  2 active torsions:
REMARK  status: ('A' for Active; 'I' for Inactive)
REMARK    1  A    between atoms: C1_2  and  C2_3 
REMARK    2  A    between atoms: C2_3  and  C3_4 
ROOT
ATOM      1  C3  UNL d   1       0.936  -5.762  -0.543  0.00  0.00    -0.075 A 
ATOM      2  C4  UNL d   1      -0.094  -5.402   0.338  0.00  0.00     0.002 A 
ATOM      3  C5  UNL d   1       0.178  -5.159   1.684  0.00  0.00     0.002 A 
ATOM      4  C6  UNL d   1       1.478  -5.282   2.169  0.00  0.00    -0.004 A 
ATOM      5  C7  UNL d   1       2.507  -5.655   1.306  0.00  0.00     0.002 A 
ATOM      6  C8  UNL d   1       2.238  -5.895  -0.043  0.00  0.00     0.002 A 
ENDROOT
BRANCH   1   7
ATOM      7  C2  UNL d   1       0.653  -5.998  -2.007  0.00  0.00     0.056 C 
BRANCH   7   8
ATOM      8  C1  UNL d   1      -0.837  -5.996  -2.363  0.00  0.00     0.007 C 
ATOM      9  C   UNL d   1      -1.096  -5.987  -3.864  0.00  0.00     0.009 C 
ENDBRANCH   7   8
ENDBRANCH   1   7
TORSDOF 2
ENDMDL
