MODEL 1
REMARK minimizedAffinity -1.74527752
REMARK minimizedRMSD -1
REMARK  0 active torsions:
REMARK  status: ('A' for Active; 'I' for Inactive)
ROOT
ATOM      1  C   UNL d   1       1.240   0.729   0.988  0.00  0.00     0.124 A 
ATOM      2  C1  UNL d   1       1.580  -0.273   0.090  0.00  0.00     0.062 A 
ATOM      3  C2  UNL d   1       0.590  -1.076  -0.471  0.00  0.00     0.162 A 
ATOM      4  C3  UNL d   1      -0.749  -0.879  -0.135  0.00  0.00    -0.034 A 
ATOM      5  C4  UNL d   1      -1.083   0.131   0.769  0.00  0.00     0.162 A 
ATOM      6  C5  UNL d   1      -0.091   0.930   1.326  0.00  0.00     0.062 A 
ATOM      7  F   UNL d   1      -0.421   1.898   2.194  0.00  0.00    -0.097 F 
ATOM      8  F1  UNL d   1      -2.361   0.347   1.114  0.00  0.00    -0.096 F 
ATOM      9  I   UNL d   1      -2.232  -2.077  -0.971  0.00  0.00    -0.060 I 
ATOM     10  F2  UNL d   1       0.948  -2.037  -1.336  0.00  0.00    -0.096 F 
ATOM     11  F3  UNL d   1       2.865  -0.469  -0.239  0.00  0.00    -0.097 F 
ATOM     12  F4  UNL d   1       2.194   1.500   1.526  0.00  0.00    -0.092 F 
ENDROOT
TORSDOF 0
ENDMDL
