MODEL 1
REMARK minimizedAffinity -3.12367439
REMARK minimizedRMSD -1
REMARK  0 active torsions:
REMARK  status: ('A' for Active; 'I' for Inactive)
ROOT
ATOM      1  C   UNL d   1       1.937   1.658   1.795  0.00  0.00     0.124 A 
ATOM      2  C1  UNL d   1       0.608   1.437   2.128  0.00  0.00     0.062 A 
ATOM      3  C2  UNL d   1      -0.160   0.544   1.386  0.00  0.00     0.162 A 
ATOM      4  C3  UNL d   1       0.400  -0.136   0.305  0.00  0.00    -0.034 A 
ATOM      5  C4  UNL d   1       1.738   0.091  -0.024  0.00  0.00     0.162 A 
ATOM      6  C5  UNL d   1       2.501   0.985   0.721  0.00  0.00     0.062 A 
ATOM      7  F   UNL d   1       3.785   1.197   0.398  0.00  0.00    -0.097 F 
ATOM      8  F1  UNL d   1       2.308  -0.546  -1.057  0.00  0.00    -0.096 F 
ATOM      9  I   UNL d   1      -0.745  -1.473  -0.806  0.00  0.00    -0.060 I 
ATOM     10  F2  UNL d   1      -1.442   0.351   1.730  0.00  0.00    -0.096 F 
ATOM     11  F3  UNL d   1       0.061   2.087   3.165  0.00  0.00    -0.097 F 
ATOM     12  F4  UNL d   1       2.673   2.519   2.510  0.00  0.00    -0.092 F 
ENDROOT
TORSDOF 0
ENDMDL
