MODEL 1
REMARK minimizedAffinity 0.725685656
REMARK minimizedRMSD -1
REMARK  0 active torsions:
REMARK  status: ('A' for Active; 'I' for Inactive)
ROOT
ATOM      1  C   UNL d   1      -0.027   1.197   1.946  0.00  0.00     0.124 A 
ATOM      2  C1  UNL d   1      -1.250   0.678   1.545  0.00  0.00     0.062 A 
ATOM      3  C2  UNL d   1      -1.329  -0.135   0.417  0.00  0.00     0.162 A 
ATOM      4  C3  UNL d   1      -0.182  -0.435  -0.316  0.00  0.00    -0.034 A 
ATOM      5  C4  UNL d   1       1.045   0.092   0.093  0.00  0.00     0.162 A 
ATOM      6  C5  UNL d   1       1.119   0.904   1.221  0.00  0.00     0.062 A 
ATOM      7  F   UNL d   1       2.301   1.405   1.607  0.00  0.00    -0.097 F 
ATOM      8  F1  UNL d   1       2.168  -0.176  -0.589  0.00  0.00    -0.096 F 
ATOM      9  I   UNL d   1      -0.296  -1.650  -2.002  0.00  0.00    -0.060 I 
ATOM     10  F2  UNL d   1      -2.524  -0.623   0.052  0.00  0.00    -0.096 F 
ATOM     11  F3  UNL d   1      -2.359   0.960   2.243  0.00  0.00    -0.097 F 
ATOM     12  F4  UNL d   1       0.046   1.980   3.031  0.00  0.00    -0.092 F 
ENDROOT
TORSDOF 0
ENDMDL
