MODEL 1
REMARK minimizedAffinity -2.23763156
REMARK minimizedRMSD -1
REMARK  0 active torsions:
REMARK  status: ('A' for Active; 'I' for Inactive)
ROOT
ATOM      1  C   UNL d   1       2.098   1.537   1.387  0.00  0.00     0.124 A 
ATOM      2  C1  UNL d   1       0.738   1.573   1.662  0.00  0.00     0.062 A 
ATOM      3  C2  UNL d   1      -0.136   0.729   0.983  0.00  0.00     0.162 A 
ATOM      4  C3  UNL d   1       0.347  -0.160   0.022  0.00  0.00    -0.034 A 
ATOM      5  C4  UNL d   1       1.716  -0.189  -0.250  0.00  0.00     0.162 A 
ATOM      6  C5  UNL d   1       2.586   0.656   0.432  0.00  0.00     0.062 A 
ATOM      7  F   UNL d   1       3.899   0.620   0.164  0.00  0.00    -0.097 F 
ATOM      8  F1  UNL d   1       2.214  -1.031  -1.167  0.00  0.00    -0.096 F 
ATOM      9  I   UNL d   1      -0.957  -1.423  -0.995  0.00  0.00    -0.060 I 
ATOM     10  F2  UNL d   1      -1.445   0.785   1.270  0.00  0.00    -0.096 F 
ATOM     11  F3  UNL d   1       0.265   2.423   2.584  0.00  0.00    -0.097 F 
ATOM     12  F4  UNL d   1       2.937   2.350   2.041  0.00  0.00    -0.092 F 
ENDROOT
TORSDOF 0
ENDMDL
