MODEL 1
REMARK minimizedAffinity -2.31440139
REMARK minimizedRMSD -1
REMARK  0 active torsions:
REMARK  status: ('A' for Active; 'I' for Inactive)
ROOT
ATOM      1  C   UNL d   1       1.710   1.363   1.052  0.00  0.00     0.124 A 
ATOM      2  C1  UNL d   1       0.353   1.369   1.342  0.00  0.00     0.062 A 
ATOM      3  C2  UNL d   1      -0.491   0.426   0.763  0.00  0.00     0.162 A 
ATOM      4  C3  UNL d   1       0.019  -0.532  -0.113  0.00  0.00    -0.034 A 
ATOM      5  C4  UNL d   1       1.385  -0.531  -0.401  0.00  0.00     0.162 A 
ATOM      6  C5  UNL d   1       2.225   0.413   0.181  0.00  0.00     0.062 A 
ATOM      7  F   UNL d   1       3.536   0.405  -0.101  0.00  0.00    -0.097 F 
ATOM      8  F1  UNL d   1       1.910  -1.439  -1.238  0.00  0.00    -0.096 F 
ATOM      9  I   UNL d   1      -1.240  -1.944  -0.981  0.00  0.00    -0.060 I 
ATOM     10  F2  UNL d   1      -1.799   0.456   1.062  0.00  0.00    -0.096 F 
ATOM     11  F3  UNL d   1      -0.147   2.287   2.182  0.00  0.00    -0.097 F 
ATOM     12  F4  UNL d   1       2.520   2.272   1.610  0.00  0.00    -0.092 F 
ENDROOT
TORSDOF 0
ENDMDL
