MODEL 1
REMARK minimizedAffinity -0.996470511
REMARK minimizedRMSD -1
REMARK  0 active torsions:
REMARK  status: ('A' for Active; 'I' for Inactive)
ROOT
ATOM      1  C   UNL d   1       2.239   1.251   1.034  0.00  0.00     0.124 A 
ATOM      2  C1  UNL d   1       2.662   0.214   0.214  0.00  0.00     0.062 A 
ATOM      3  C2  UNL d   1       1.730  -0.585  -0.442  0.00  0.00     0.162 A 
ATOM      4  C3  UNL d   1       0.364  -0.350  -0.281  0.00  0.00    -0.034 A 
ATOM      5  C4  UNL d   1      -0.054   0.694   0.547  0.00  0.00     0.162 A 
ATOM      6  C5  UNL d   1       0.882   1.489   1.200  0.00  0.00     0.062 A 
ATOM      7  F   UNL d   1       0.471   2.490   1.993  0.00  0.00    -0.097 F 
ATOM      8  F1  UNL d   1      -1.359   0.947   0.725  0.00  0.00    -0.096 F 
ATOM      9  I   UNL d   1      -1.033  -1.542  -1.259  0.00  0.00    -0.060 I 
ATOM     10  F2  UNL d   1       2.167  -1.579  -1.229  0.00  0.00    -0.096 F 
ATOM     11  F3  UNL d   1       3.972  -0.019   0.053  0.00  0.00    -0.097 F 
ATOM     12  F4  UNL d   1       3.138   2.017   1.665  0.00  0.00    -0.092 F 
ENDROOT
TORSDOF 0
ENDMDL
