MODEL 1
REMARK minimizedAffinity -1.08453321
REMARK minimizedRMSD -1
REMARK  0 active torsions:
REMARK  status: ('A' for Active; 'I' for Inactive)
ROOT
ATOM      1  C   UNL d   1       2.003   1.271   1.229  0.00  0.00     0.124 A 
ATOM      2  C1  UNL d   1       0.665   1.307   1.594  0.00  0.00     0.062 A 
ATOM      3  C2  UNL d   1      -0.255   0.471   0.968  0.00  0.00     0.162 A 
ATOM      4  C3  UNL d   1       0.161  -0.411  -0.030  0.00  0.00    -0.034 A 
ATOM      5  C4  UNL d   1       1.509  -0.441  -0.393  0.00  0.00     0.162 A 
ATOM      6  C5  UNL d   1       2.424   0.397   0.236  0.00  0.00     0.062 A 
ATOM      7  F   UNL d   1       3.717   0.360  -0.118  0.00  0.00    -0.097 F 
ATOM      8  F1  UNL d   1       1.943  -1.277  -1.348  0.00  0.00    -0.096 F 
ATOM      9  I   UNL d   1      -1.211  -1.663  -0.968  0.00  0.00    -0.060 I 
ATOM     10  F2  UNL d   1      -1.542   0.527   1.341  0.00  0.00    -0.096 F 
ATOM     11  F3  UNL d   1       0.255   2.151   2.552  0.00  0.00    -0.097 F 
ATOM     12  F4  UNL d   1       2.886   2.077   1.832  0.00  0.00    -0.092 F 
ENDROOT
TORSDOF 0
ENDMDL
