MODEL 1
REMARK minimizedAffinity -2.40769839
REMARK minimizedRMSD -1
REMARK  0 active torsions:
REMARK  status: ('A' for Active; 'I' for Inactive)
ROOT
ATOM      1  C   UNL d   1      -1.131   0.347   1.115  0.00  0.00     0.124 A 
ATOM      2  C1  UNL d   1      -0.594  -0.619   0.277  0.00  0.00     0.062 A 
ATOM      3  C2  UNL d   1       0.764  -0.605  -0.030  0.00  0.00     0.162 A 
ATOM      4  C3  UNL d   1       1.595   0.380   0.504  0.00  0.00    -0.034 A 
ATOM      5  C4  UNL d   1       1.047   1.350   1.346  0.00  0.00     0.162 A 
ATOM      6  C5  UNL d   1      -0.310   1.331   1.649  0.00  0.00     0.062 A 
ATOM      7  F   UNL d   1      -0.827   2.266   2.460  0.00  0.00    -0.097 F 
ATOM      8  F1  UNL d   1       1.818   2.311   1.876  0.00  0.00    -0.096 F 
ATOM      9  I   UNL d   1       3.625   0.406   0.048  0.00  0.00    -0.060 I 
ATOM     10  F2  UNL d   1       1.255  -1.551  -0.843  0.00  0.00    -0.096 F 
ATOM     11  F3  UNL d   1      -1.385  -1.570  -0.241  0.00  0.00    -0.097 F 
ATOM     12  F4  UNL d   1      -2.438   0.331   1.408  0.00  0.00    -0.092 F 
ENDROOT
TORSDOF 0
ENDMDL
