MODEL 1
REMARK minimizedAffinity 2.59059381
REMARK minimizedRMSD -1
REMARK  0 active torsions:
REMARK  status: ('A' for Active; 'I' for Inactive)
ROOT
ATOM      1  C   UNL d   1       1.597   1.168   1.307  0.00  0.00     0.124 A 
ATOM      2  C1  UNL d   1       0.241   1.236   1.594  0.00  0.00     0.062 A 
ATOM      3  C2  UNL d   1      -0.668   0.470   0.868  0.00  0.00     0.162 A 
ATOM      4  C3  UNL d   1      -0.222  -0.372  -0.151  0.00  0.00    -0.034 A 
ATOM      5  C4  UNL d   1       1.143  -0.434  -0.434  0.00  0.00     0.162 A 
ATOM      6  C5  UNL d   1       2.047   0.333   0.293  0.00  0.00     0.062 A 
ATOM      7  F   UNL d   1       3.357   0.266   0.015  0.00  0.00    -0.097 F 
ATOM      8  F1  UNL d   1       1.605  -1.233  -1.407  0.00  0.00    -0.096 F 
ATOM      9  I   UNL d   1      -1.577  -1.518  -1.237  0.00  0.00    -0.060 I 
ATOM     10  F2  UNL d   1      -1.972   0.556   1.167  0.00  0.00    -0.096 F 
ATOM     11  F3  UNL d   1      -0.196   2.043   2.571  0.00  0.00    -0.097 F 
ATOM     12  F4  UNL d   1       2.469   1.907   2.005  0.00  0.00    -0.092 F 
ENDROOT
TORSDOF 0
ENDMDL
