MODEL 1
REMARK minimizedAffinity 1.89954364
REMARK minimizedRMSD -1
REMARK  0 active torsions:
REMARK  status: ('A' for Active; 'I' for Inactive)
ROOT
ATOM      1  C   UNL d   1      -1.246  -1.915  -1.663  0.00  0.00     0.124 A 
ATOM      2  C1  UNL d   1      -2.143  -0.879  -1.446  0.00  0.00     0.062 A 
ATOM      3  C2  UNL d   1      -1.856   0.110  -0.509  0.00  0.00     0.162 A 
ATOM      4  C3  UNL d   1      -0.667   0.067   0.218  0.00  0.00    -0.034 A 
ATOM      5  C4  UNL d   1       0.230  -0.979  -0.005  0.00  0.00     0.162 A 
ATOM      6  C5  UNL d   1      -0.060  -1.965  -0.943  0.00  0.00     0.062 A 
ATOM      7  F   UNL d   1       0.807  -2.965  -1.151  0.00  0.00    -0.097 F 
ATOM      8  F1  UNL d   1       1.383  -1.050   0.676  0.00  0.00    -0.096 F 
ATOM      9  I   UNL d   1      -0.235   1.544   1.620  0.00  0.00    -0.060 I 
ATOM     10  F2  UNL d   1      -2.741   1.100  -0.320  0.00  0.00    -0.096 F 
ATOM     11  F3  UNL d   1      -3.289  -0.829  -2.140  0.00  0.00    -0.097 F 
ATOM     12  F4  UNL d   1      -1.524  -2.866  -2.565  0.00  0.00    -0.092 F 
ENDROOT
TORSDOF 0
ENDMDL
