MODEL 1
REMARK minimizedAffinity 0.11517787
REMARK minimizedRMSD -1
REMARK  0 active torsions:
REMARK  status: ('A' for Active; 'I' for Inactive)
ROOT
ATOM      1  C   UNL d   1       1.729   1.102   1.041  0.00  0.00     0.124 A 
ATOM      2  C1  UNL d   1       2.120   0.319  -0.036  0.00  0.00     0.062 A 
ATOM      3  C2  UNL d   1       1.176  -0.415  -0.747  0.00  0.00     0.162 A 
ATOM      4  C3  UNL d   1      -0.171  -0.368  -0.385  0.00  0.00    -0.034 A 
ATOM      5  C4  UNL d   1      -0.556   0.422   0.700  0.00  0.00     0.162 A 
ATOM      6  C5  UNL d   1       0.392   1.153   1.408  0.00  0.00     0.062 A 
ATOM      7  F   UNL d   1       0.012   1.909   2.448  0.00  0.00    -0.097 F 
ATOM      8  F1  UNL d   1      -1.842   0.490   1.075  0.00  0.00    -0.096 F 
ATOM      9  I   UNL d   1      -1.586  -1.463  -1.446  0.00  0.00    -0.060 I 
ATOM     10  F2  UNL d   1       1.582  -1.163  -1.784  0.00  0.00    -0.096 F 
ATOM     11  F3  UNL d   1       3.412   0.268  -0.392  0.00  0.00    -0.097 F 
ATOM     12  F4  UNL d   1       2.641   1.806   1.725  0.00  0.00    -0.092 F 
ENDROOT
TORSDOF 0
ENDMDL
