MODEL 1
REMARK minimizedAffinity -0.242333382
REMARK minimizedRMSD -1
REMARK  0 active torsions:
REMARK  status: ('A' for Active; 'I' for Inactive)
ROOT
ATOM      1  C   UNL d   1       1.540   1.034   1.280  0.00  0.00     0.124 A 
ATOM      2  C1  UNL d   1       0.174   1.251   1.397  0.00  0.00     0.062 A 
ATOM      3  C2  UNL d   1      -0.724   0.453   0.695  0.00  0.00     0.162 A 
ATOM      4  C3  UNL d   1      -0.260  -0.572  -0.130  0.00  0.00    -0.034 A 
ATOM      5  C4  UNL d   1       1.116  -0.783  -0.244  0.00  0.00     0.162 A 
ATOM      6  C5  UNL d   1       2.009   0.018   0.460  0.00  0.00     0.062 A 
ATOM      7  F   UNL d   1       3.329  -0.193   0.346  0.00  0.00    -0.097 F 
ATOM      8  F1  UNL d   1       1.597  -1.759  -1.028  0.00  0.00    -0.096 F 
ATOM      9  I   UNL d   1      -1.599  -1.768  -1.182  0.00  0.00    -0.060 I 
ATOM     10  F2  UNL d   1      -2.039   0.685   0.827  0.00  0.00    -0.096 F 
ATOM     11  F3  UNL d   1      -0.282   2.233   2.187  0.00  0.00    -0.097 F 
ATOM     12  F4  UNL d   1       2.402   1.805   1.956  0.00  0.00    -0.092 F 
ENDROOT
TORSDOF 0
ENDMDL
