MODEL 1
REMARK minimizedAffinity -2.14283371
REMARK minimizedRMSD -1
REMARK  0 active torsions:
REMARK  status: ('A' for Active; 'I' for Inactive)
ROOT
ATOM      1  C   UNL d   1       2.035   1.071   1.332  0.00  0.00     0.124 A 
ATOM      2  C1  UNL d   1       0.678   1.253   1.560  0.00  0.00     0.062 A 
ATOM      3  C2  UNL d   1      -0.258   0.533   0.824  0.00  0.00     0.162 A 
ATOM      4  C3  UNL d   1       0.159  -0.377  -0.148  0.00  0.00    -0.034 A 
ATOM      5  C4  UNL d   1       1.526  -0.553  -0.372  0.00  0.00     0.162 A 
ATOM      6  C5  UNL d   1       2.457   0.169   0.367  0.00  0.00     0.062 A 
ATOM      7  F   UNL d   1       3.768  -0.008   0.145  0.00  0.00    -0.097 F 
ATOM      8  F1  UNL d   1       1.962  -1.420  -1.298  0.00  0.00    -0.096 F 
ATOM      9  I   UNL d   1      -1.237  -1.455  -1.251  0.00  0.00    -0.060 I 
ATOM     10  F2  UNL d   1      -1.563   0.729   1.065  0.00  0.00    -0.096 F 
ATOM     11  F3  UNL d   1       0.267   2.125   2.492  0.00  0.00    -0.097 F 
ATOM     12  F4  UNL d   1       2.933   1.766   2.042  0.00  0.00    -0.092 F 
ENDROOT
TORSDOF 0
ENDMDL
