MODEL 1
REMARK minimizedAffinity 0.509943783
REMARK minimizedRMSD -1
REMARK  0 active torsions:
REMARK  status: ('A' for Active; 'I' for Inactive)
ROOT
ATOM      1  C   UNL d   1       1.983   1.365   1.141  0.00  0.00     0.124 A 
ATOM      2  C1  UNL d   1       0.624   1.460   1.405  0.00  0.00     0.062 A 
ATOM      3  C2  UNL d   1      -0.275   0.613   0.764  0.00  0.00     0.162 A 
ATOM      4  C3  UNL d   1       0.183  -0.338  -0.148  0.00  0.00    -0.034 A 
ATOM      5  C4  UNL d   1       1.551  -0.427  -0.409  0.00  0.00     0.162 A 
ATOM      6  C5  UNL d   1       2.446   0.422   0.235  0.00  0.00     0.062 A 
ATOM      7  F   UNL d   1       3.758   0.328  -0.022  0.00  0.00    -0.097 F 
ATOM      8  F1  UNL d   1       2.025  -1.330  -1.280  0.00  0.00    -0.096 F 
ATOM      9  I   UNL d   1      -1.158  -1.606  -1.110  0.00  0.00    -0.060 I 
ATOM     10  F2  UNL d   1      -1.583   0.728   1.038  0.00  0.00    -0.096 F 
ATOM     11  F3  UNL d   1       0.175   2.371   2.280  0.00  0.00    -0.097 F 
ATOM     12  F4  UNL d   1       2.846   2.182   1.760  0.00  0.00    -0.092 F 
ENDROOT
TORSDOF 0
ENDMDL
