MODEL 1
REMARK minimizedAffinity -2.06505036
REMARK minimizedRMSD -1
REMARK  0 active torsions:
REMARK  status: ('A' for Active; 'I' for Inactive)
ROOT
ATOM      1  C   UNL d   1       1.052   1.263   1.196  0.00  0.00     0.124 A 
ATOM      2  C1  UNL d   1       1.517   0.297   0.314  0.00  0.00     0.062 A 
ATOM      3  C2  UNL d   1       0.629  -0.594  -0.281  0.00  0.00     0.162 A 
ATOM      4  C3  UNL d   1      -0.735  -0.524   0.004  0.00  0.00    -0.034 A 
ATOM      5  C4  UNL d   1      -1.195   0.449   0.893  0.00  0.00     0.162 A 
ATOM      6  C5  UNL d   1      -0.304   1.337   1.485  0.00  0.00     0.062 A 
ATOM      7  F   UNL d   1      -0.755   2.269   2.337  0.00  0.00    -0.097 F 
ATOM      8  F1  UNL d   1      -2.500   0.544   1.189  0.00  0.00    -0.096 F 
ATOM      9  I   UNL d   1      -2.066  -1.856  -0.882  0.00  0.00    -0.060 I 
ATOM     10  F2  UNL d   1       1.106  -1.517  -1.129  0.00  0.00    -0.096 F 
ATOM     11  F3  UNL d   1       2.826   0.222   0.033  0.00  0.00    -0.097 F 
ATOM     12  F4  UNL d   1       1.909   2.119   1.767  0.00  0.00    -0.092 F 
ENDROOT
TORSDOF 0
ENDMDL
