MODEL 1
REMARK minimizedAffinity -2.74909663
REMARK minimizedRMSD -1
REMARK  2 active torsions:
REMARK  status: ('A' for Active; 'I' for Inactive)
REMARK    1  A    between atoms: C2'_3  and  C1'_4 
REMARK    2  A    between atoms: C1'_4  and  C1_5 
ROOT
ATOM      1  C1  I4B d   1       1.842  -2.653   3.004  0.00  0.00    -0.075 A 
ATOM      2  C2  I4B d   1       0.747  -2.363   2.229  0.00  0.00     0.003 A 
ATOM      3  C3  I4B d   1       0.869  -1.492   1.120  0.00  0.00     0.002 A 
ATOM      4  C4  I4B d   1       2.085  -0.898   0.853  0.00  0.00    -0.004 A 
ATOM      5  C5  I4B d   1       3.200  -1.210   1.626  0.00  0.00     0.002 A 
ATOM      6  C6  I4B d   1       3.081  -2.103   2.701  0.00  0.00     0.003 A 
ENDROOT
BRANCH   1   7
ATOM      7  C1' I4B d   1       1.670  -3.551   4.189  0.00  0.00     0.060 C 
BRANCH   7   8
ATOM      8  C2' I4B d   1       2.989  -4.253   4.437  0.00  0.00    -0.013 C 
ATOM      9  C4' I4B d   1       3.617  -3.795   5.727  0.00  0.00     0.013 C 
ATOM     10  C3' I4B d   1       2.730  -5.730   4.456  0.00  0.00     0.013 C 
ENDBRANCH   7   8
ENDBRANCH   1   7
TORSDOF 2
ENDMDL
