MODEL 1
REMARK minimizedAffinity -4.14457703
REMARK minimizedRMSD -1
REMARK  2 active torsions:
REMARK  status: ('A' for Active; 'I' for Inactive)
REMARK    1  A    between atoms: C2'_3  and  C1'_4 
REMARK    2  A    between atoms: C1'_4  and  C1_5 
ROOT
ATOM      1  C1  I4B d   1       2.184  -2.455   3.127  0.00  0.00    -0.075 A 
ATOM      2  C2  I4B d   1       1.046  -2.468   2.359  0.00  0.00     0.003 A 
ATOM      3  C3  I4B d   1       1.061  -1.916   1.055  0.00  0.00     0.002 A 
ATOM      4  C4  I4B d   1       2.212  -1.322   0.581  0.00  0.00    -0.004 A 
ATOM      5  C5  I4B d   1       3.371  -1.331   1.352  0.00  0.00     0.002 A 
ATOM      6  C6  I4B d   1       3.361  -1.912   2.628  0.00  0.00     0.003 A 
ENDROOT
BRANCH   1   7
ATOM      7  C1' I4B d   1       2.125  -3.016   4.512  0.00  0.00     0.060 C 
BRANCH   7   8
ATOM      8  C2' I4B d   1       3.291  -3.968   4.681  0.00  0.00    -0.013 C 
ATOM      9  C4' I4B d   1       3.987  -3.749   5.998  0.00  0.00     0.013 C 
ATOM     10  C3' I4B d   1       2.766  -5.368   4.571  0.00  0.00     0.013 C 
ENDBRANCH   7   8
ENDBRANCH   1   7
TORSDOF 2
ENDMDL
