MODEL 1
REMARK minimizedAffinity 2.66929388
REMARK minimizedRMSD -1
REMARK  2 active torsions:
REMARK  status: ('A' for Active; 'I' for Inactive)
REMARK    1  A    between atoms: C2'_3  and  C1'_4 
REMARK    2  A    between atoms: C1'_4  and  C1_5 
ROOT
ATOM      1  C1  I4B d   1       2.517  -0.435   0.919  0.00  0.00    -0.075 A 
ATOM      2  C2  I4B d   1       1.282  -0.958   0.627  0.00  0.00     0.003 A 
ATOM      3  C3  I4B d   1       0.758  -2.023   1.399  0.00  0.00     0.002 A 
ATOM      4  C4  I4B d   1       1.519  -2.564   2.415  0.00  0.00    -0.004 A 
ATOM      5  C5  I4B d   1       2.761  -2.017   2.725  0.00  0.00     0.002 A 
ATOM      6  C6  I4B d   1       3.258  -0.938   1.980  0.00  0.00     0.003 A 
ENDROOT
BRANCH   1   7
ATOM      7  C1' I4B d   1       3.054   0.668   0.062  0.00  0.00     0.060 C 
BRANCH   7   8
ATOM      8  C2' I4B d   1       2.614   1.986   0.667  0.00  0.00    -0.013 C 
ATOM      9  C4' I4B d   1       2.238   2.978  -0.401  0.00  0.00     0.013 C 
ATOM     10  C3' I4B d   1       1.459   1.712   1.584  0.00  0.00     0.013 C 
ENDBRANCH   7   8
ENDBRANCH   1   7
TORSDOF 2
ENDMDL
