MODEL 1
REMARK minimizedAffinity 4.43284225
REMARK minimizedRMSD -1
REMARK  2 active torsions:
REMARK  status: ('A' for Active; 'I' for Inactive)
REMARK    1  A    between atoms: C2'_3  and  C1'_4 
REMARK    2  A    between atoms: C1'_4  and  C1_5 
ROOT
ATOM      1  C1  I4B d   1      -0.069  -0.472   1.010  0.00  0.00    -0.075 A 
ATOM      2  C2  I4B d   1       0.676  -1.612   1.182  0.00  0.00     0.003 A 
ATOM      3  C3  I4B d   1       2.088  -1.536   1.258  0.00  0.00     0.002 A 
ATOM      4  C4  I4B d   1       2.711  -0.314   1.107  0.00  0.00    -0.004 A 
ATOM      5  C5  I4B d   1       1.953   0.843   0.955  0.00  0.00     0.002 A 
ATOM      6  C6  I4B d   1       0.554   0.766   0.919  0.00  0.00     0.003 A 
ENDROOT
BRANCH   1   7
ATOM      7  C1' I4B d   1      -1.556  -0.593   0.901  0.00  0.00     0.060 C 
BRANCH   7   8
ATOM      8  C2' I4B d   1      -2.132   0.805   0.797  0.00  0.00    -0.013 C 
ATOM      9  C4' I4B d   1      -2.962   0.961  -0.450  0.00  0.00     0.013 C 
ATOM     10  C3' I4B d   1      -2.949   1.063   2.027  0.00  0.00     0.013 C 
ENDBRANCH   7   8
ENDBRANCH   1   7
TORSDOF 2
ENDMDL
