MODEL 1
REMARK minimizedAffinity 6.70207405
REMARK minimizedRMSD -1
REMARK  2 active torsions:
REMARK  status: ('A' for Active; 'I' for Inactive)
REMARK    1  A    between atoms: C2'_3  and  C1'_4 
REMARK    2  A    between atoms: C1'_4  and  C1_5 
ROOT
ATOM      1  C1  I4B d   1       1.590  -1.304   1.882  0.00  0.00    -0.075 A 
ATOM      2  C2  I4B d   1       1.304  -2.499   2.494  0.00  0.00     0.003 A 
ATOM      3  C3  I4B d   1       0.013  -3.069   2.375  0.00  0.00     0.002 A 
ATOM      4  C4  I4B d   1      -0.969  -2.391   1.682  0.00  0.00    -0.004 A 
ATOM      5  C5  I4B d   1      -0.670  -1.191   1.043  0.00  0.00     0.002 A 
ATOM      6  C6  I4B d   1       0.621  -0.650   1.133  0.00  0.00     0.003 A 
ENDROOT
BRANCH   1   7
ATOM      7  C1' I4B d   1       2.954  -0.714   2.055  0.00  0.00     0.060 C 
BRANCH   7   8
ATOM      8  C2' I4B d   1       3.862  -1.320   1.004  0.00  0.00    -0.013 C 
ATOM      9  C4' I4B d   1       4.319  -0.281   0.014  0.00  0.00     0.013 C 
ATOM     10  C3' I4B d   1       5.028  -1.949   1.707  0.00  0.00     0.013 C 
ENDBRANCH   7   8
ENDBRANCH   1   7
TORSDOF 2
ENDMDL
