MODEL 1
REMARK minimizedAffinity 2.8995502
REMARK minimizedRMSD -1
REMARK  2 active torsions:
REMARK  status: ('A' for Active; 'I' for Inactive)
REMARK    1  A    between atoms: C2'_3  and  C1'_4 
REMARK    2  A    between atoms: C1'_4  and  C1_5 
ROOT
ATOM      1  C1  I4B d   1       0.951  -1.708   1.151  0.00  0.00    -0.075 A 
ATOM      2  C2  I4B d   1       1.445  -2.153  -0.050  0.00  0.00     0.003 A 
ATOM      3  C3  I4B d   1       0.768  -1.850  -1.256  0.00  0.00     0.002 A 
ATOM      4  C4  I4B d   1      -0.418  -1.148  -1.211  0.00  0.00    -0.004 A 
ATOM      5  C5  I4B d   1      -0.906  -0.677   0.004  0.00  0.00     0.002 A 
ATOM      6  C6  I4B d   1      -0.211  -0.948   1.192  0.00  0.00     0.003 A 
ENDROOT
BRANCH   1   7
ATOM      7  C1' I4B d   1       1.674  -2.074   2.408  0.00  0.00     0.060 C 
BRANCH   7   8
ATOM      8  C2' I4B d   1       0.638  -2.442   3.451  0.00  0.00    -0.013 C 
ATOM      9  C4' I4B d   1       0.334  -3.916   3.421  0.00  0.00     0.013 C 
ATOM     10  C3' I4B d   1       1.164  -2.025   4.792  0.00  0.00     0.013 C 
ENDBRANCH   7   8
ENDBRANCH   1   7
TORSDOF 2
ENDMDL
