MODEL 1
REMARK minimizedAffinity 0.852130473
REMARK minimizedRMSD -1
REMARK  0 active torsions:
REMARK  status: ('A' for Active; 'I' for Inactive)
ROOT
ATOM      1  C   UNL d   1       1.984  -5.742   3.253  0.00  0.00     0.023 A 
ATOM      2  C1  UNL d   1       3.243  -5.634   2.661  0.00  0.00     0.003 A 
ATOM      3  C2  UNL d   1       4.394  -5.706   3.449  0.00  0.00     0.048 A 
ATOM      4  C3  UNL d   1       4.279  -5.888   4.826  0.00  0.00     0.023 A 
ATOM      5  C4  UNL d   1       3.022  -5.998   5.422  0.00  0.00     0.048 A 
ATOM      6  C5  UNL d   1       1.874  -5.925   4.631  0.00  0.00     0.003 A 
ATOM      7  I   UNL d   1       5.991  -5.996   6.000  0.00  0.00    -0.146 I 
ENDROOT
TORSDOF 0
ENDMDL
