MODEL 1
REMARK minimizedAffinity 10.8711233
REMARK minimizedRMSD -1
REMARK  0 active torsions:
REMARK  status: ('A' for Active; 'I' for Inactive)
ROOT
ATOM      1  C   UNL d   1       3.391   0.430  -4.419  0.00  0.00     0.023 A 
ATOM      2  C1  UNL d   1       3.027   1.185  -5.534  0.00  0.00     0.003 A 
ATOM      3  C2  UNL d   1       1.707   1.169  -5.989  0.00  0.00     0.048 A 
ATOM      4  C3  UNL d   1       0.756   0.395  -5.324  0.00  0.00     0.023 A 
ATOM      5  C4  UNL d   1       1.115  -0.362  -4.208  0.00  0.00     0.048 A 
ATOM      6  C5  UNL d   1       2.437  -0.343  -3.757  0.00  0.00     0.003 A 
ATOM      7  I   UNL d   1      -1.210   0.369  -6.000  0.00  0.00    -0.146 I 
ENDROOT
TORSDOF 0
ENDMDL
