MODEL 1
REMARK minimizedAffinity 8.77493477
REMARK minimizedRMSD -1
REMARK  0 active torsions:
REMARK  status: ('A' for Active; 'I' for Inactive)
ROOT
ATOM      1  C   UNL d   1      -3.000  -5.847  -6.000  0.00  0.00     0.023 A 
ATOM      2  C1  UNL d   1      -3.618  -4.597  -6.000  0.00  0.00     0.003 A 
ATOM      3  C2  UNL d   1      -2.845  -3.434  -5.995  0.00  0.00     0.048 A 
ATOM      4  C3  UNL d   1      -1.454  -3.529  -5.991  0.00  0.00     0.023 A 
ATOM      5  C4  UNL d   1      -0.830  -4.778  -5.992  0.00  0.00     0.048 A 
ATOM      6  C5  UNL d   1      -1.608  -5.938  -5.996  0.00  0.00     0.003 A 
ATOM      7  I   UNL d   1      -0.301  -1.800  -5.983  0.00  0.00    -0.146 I 
ENDROOT
TORSDOF 0
ENDMDL
