MODEL 1
REMARK minimizedAffinity 11.3834705
REMARK minimizedRMSD -1
REMARK  0 active torsions:
REMARK  status: ('A' for Active; 'I' for Inactive)
ROOT
ATOM      1  C   UNL d   1       1.125  -0.009  -4.152  0.00  0.00     0.023 A 
ATOM      2  C1  UNL d   1       0.118   0.196  -5.096  0.00  0.00     0.003 A 
ATOM      3  C2  UNL d   1      -0.575  -0.894  -5.627  0.00  0.00     0.048 A 
ATOM      4  C3  UNL d   1      -0.256  -2.186  -5.210  0.00  0.00     0.023 A 
ATOM      5  C4  UNL d   1       0.750  -2.396  -4.266  0.00  0.00     0.048 A 
ATOM      6  C5  UNL d   1       1.440  -1.303  -3.738  0.00  0.00     0.003 A 
ATOM      7  I   UNL d   1      -1.285  -3.810  -6.000  0.00  0.00    -0.146 I 
ENDROOT
TORSDOF 0
ENDMDL
