MODEL 1
REMARK minimizedAffinity 3.55476332
REMARK minimizedRMSD -1
REMARK  0 active torsions:
REMARK  status: ('A' for Active; 'I' for Inactive)
ROOT
ATOM      1  C   UNL d   1      -1.581  -2.575  -5.402  0.00  0.00     0.023 A 
ATOM      2  C1  UNL d   1      -0.541  -3.233  -4.745  0.00  0.00     0.003 A 
ATOM      3  C2  UNL d   1       0.431  -2.498  -4.064  0.00  0.00     0.048 A 
ATOM      4  C3  UNL d   1       0.356  -1.106  -4.042  0.00  0.00     0.023 A 
ATOM      5  C4  UNL d   1      -0.683  -0.443  -4.697  0.00  0.00     0.048 A 
ATOM      6  C5  UNL d   1      -1.652  -1.182  -5.378  0.00  0.00     0.003 A 
ATOM      7  I   UNL d   1       1.802  -0.010  -3.028  0.00  0.00    -0.146 I 
ENDROOT
TORSDOF 0
ENDMDL
