MODEL 1
REMARK minimizedAffinity 14.015172
REMARK minimizedRMSD -1
REMARK  0 active torsions:
REMARK  status: ('A' for Active; 'I' for Inactive)
ROOT
ATOM      1  C   UNL d   1       6.000  -2.118   5.795  0.00  0.00     0.023 A 
ATOM      2  C1  UNL d   1       5.936  -0.729   5.902  0.00  0.00     0.003 A 
ATOM      3  C2  UNL d   1       5.629   0.046   4.782  0.00  0.00     0.048 A 
ATOM      4  C3  UNL d   1       5.385  -0.575   3.557  0.00  0.00     0.023 A 
ATOM      5  C4  UNL d   1       5.447  -1.965   3.446  0.00  0.00     0.048 A 
ATOM      6  C5  UNL d   1       5.755  -2.736   4.569  0.00  0.00     0.003 A 
ATOM      7  I   UNL d   1       4.927   0.575   1.888  0.00  0.00    -0.146 I 
ENDROOT
TORSDOF 0
ENDMDL
