MODEL 1
REMARK minimizedAffinity 12.6447935
REMARK minimizedRMSD -1
REMARK  0 active torsions:
REMARK  status: ('A' for Active; 'I' for Inactive)
ROOT
ATOM      1  C   UNL d   1       3.522   4.360  -5.508  0.00  0.00     0.023 A 
ATOM      2  C1  UNL d   1       2.228   3.886  -5.292  0.00  0.00     0.003 A 
ATOM      3  C2  UNL d   1       1.868   3.376  -4.043  0.00  0.00     0.048 A 
ATOM      4  C3  UNL d   1       2.808   3.344  -3.013  0.00  0.00     0.023 A 
ATOM      5  C4  UNL d   1       4.104   3.817  -3.224  0.00  0.00     0.048 A 
ATOM      6  C5  UNL d   1       4.459   4.325  -4.475  0.00  0.00     0.003 A 
ATOM      7  I   UNL d   1       2.275   2.585  -1.153  0.00  0.00    -0.146 I 
ENDROOT
TORSDOF 0
ENDMDL
