MODEL 1
REMARK minimizedAffinity 2.75744176
REMARK minimizedRMSD -1
REMARK  0 active torsions:
REMARK  status: ('A' for Active; 'I' for Inactive)
ROOT
ATOM      1  C   UNL d   1       0.324  -0.006  -3.403  0.00  0.00     0.023 A 
ATOM      2  C1  UNL d   1      -0.643   0.107  -4.401  0.00  0.00     0.003 A 
ATOM      3  C2  UNL d   1      -1.034  -1.020  -5.127  0.00  0.00     0.048 A 
ATOM      4  C3  UNL d   1      -0.455  -2.257  -4.848  0.00  0.00     0.023 A 
ATOM      5  C4  UNL d   1       0.513  -2.376  -3.849  0.00  0.00     0.048 A 
ATOM      6  C5  UNL d   1       0.902  -1.246  -3.127  0.00  0.00     0.003 A 
ATOM      7  I   UNL d   1      -1.036  -3.936  -5.927  0.00  0.00    -0.146 I 
ENDROOT
TORSDOF 0
ENDMDL
