MODEL 1
REMARK minimizedAffinity 6.21475697
REMARK minimizedRMSD -1
REMARK  0 active torsions:
REMARK  status: ('A' for Active; 'I' for Inactive)
ROOT
ATOM      1  C   UNL d   1       3.800   4.969  -4.469  0.00  0.00     0.023 A 
ATOM      2  C1  UNL d   1       2.589   5.383  -3.914  0.00  0.00     0.003 A 
ATOM      3  C2  UNL d   1       2.001   4.644  -2.886  0.00  0.00     0.048 A 
ATOM      4  C3  UNL d   1       2.630   3.492  -2.416  0.00  0.00     0.023 A 
ATOM      5  C4  UNL d   1       3.842   3.074  -2.967  0.00  0.00     0.048 A 
ATOM      6  C5  UNL d   1       4.425   3.815  -3.996  0.00  0.00     0.003 A 
ATOM      7  I   UNL d   1       1.757   2.391  -0.884  0.00  0.00    -0.146 I 
ENDROOT
TORSDOF 0
ENDMDL
