MODEL 1
REMARK minimizedAffinity 12.4035883
REMARK minimizedRMSD -1
REMARK  0 active torsions:
REMARK  status: ('A' for Active; 'I' for Inactive)
ROOT
ATOM      1  C   UNL d   1       1.075  -1.723  -3.788  0.00  0.00     0.023 A 
ATOM      2  C1  UNL d   1       2.285  -1.058  -3.988  0.00  0.00     0.003 A 
ATOM      3  C2  UNL d   1       2.619   0.039  -3.193  0.00  0.00     0.048 A 
ATOM      4  C3  UNL d   1       1.740   0.467  -2.198  0.00  0.00     0.023 A 
ATOM      5  C4  UNL d   1       0.529  -0.196  -1.994  0.00  0.00     0.048 A 
ATOM      6  C5  UNL d   1       0.198  -1.292  -2.792  0.00  0.00     0.003 A 
ATOM      7  I   UNL d   1       2.237   2.100  -1.013  0.00  0.00    -0.146 I 
ENDROOT
TORSDOF 0
ENDMDL
