MODEL 1
REMARK minimizedAffinity 10.476016
REMARK minimizedRMSD -1
REMARK  0 active torsions:
REMARK  status: ('A' for Active; 'I' for Inactive)
ROOT
ATOM      1  C   UNL d   1       2.089   0.002  -3.045  0.00  0.00     0.023 A 
ATOM      2  C1  UNL d   1       2.382  -0.317  -4.370  0.00  0.00     0.003 A 
ATOM      3  C2  UNL d   1       1.468  -1.048  -5.133  0.00  0.00     0.048 A 
ATOM      4  C3  UNL d   1       0.263  -1.455  -4.563  0.00  0.00     0.023 A 
ATOM      5  C4  UNL d   1      -0.036  -1.137  -3.237  0.00  0.00     0.048 A 
ATOM      6  C5  UNL d   1       0.881  -0.407  -2.478  0.00  0.00     0.003 A 
ATOM      7  I   UNL d   1      -1.099  -2.543  -5.695  0.00  0.00    -0.146 I 
ENDROOT
TORSDOF 0
ENDMDL
