MODEL 1
REMARK minimizedAffinity 10.837472
REMARK minimizedRMSD -1
REMARK  0 active torsions:
REMARK  status: ('A' for Active; 'I' for Inactive)
ROOT
ATOM      1  C   UNL d   1       0.947  -1.539  -4.103  0.00  0.00     0.023 A 
ATOM      2  C1  UNL d   1       1.113  -0.260  -4.634  0.00  0.00     0.003 A 
ATOM      3  C2  UNL d   1       1.164   0.849  -3.787  0.00  0.00     0.048 A 
ATOM      4  C3  UNL d   1       1.050   0.671  -2.409  0.00  0.00     0.023 A 
ATOM      5  C4  UNL d   1       0.885  -0.607  -1.872  0.00  0.00     0.048 A 
ATOM      6  C5  UNL d   1       0.833  -1.712  -2.723  0.00  0.00     0.003 A 
ATOM      7  I   UNL d   1       1.126   2.320  -1.145  0.00  0.00    -0.146 I 
ENDROOT
TORSDOF 0
ENDMDL
