MODEL 1
REMARK minimizedAffinity 6.32496738
REMARK minimizedRMSD -1
REMARK  0 active torsions:
REMARK  status: ('A' for Active; 'I' for Inactive)
ROOT
ATOM      1  C   UNL d   1      -4.514  -5.941  -0.123  0.00  0.00     0.023 A 
ATOM      2  C1  UNL d   1      -5.328  -6.000  -1.254  0.00  0.00     0.003 A 
ATOM      3  C2  UNL d   1      -5.755  -4.822  -1.870  0.00  0.00     0.048 A 
ATOM      4  C3  UNL d   1      -5.365  -3.588  -1.351  0.00  0.00     0.023 A 
ATOM      5  C4  UNL d   1      -4.549  -3.524  -0.220  0.00  0.00     0.048 A 
ATOM      6  C5  UNL d   1      -4.125  -4.705   0.394  0.00  0.00     0.003 A 
ATOM      7  I   UNL d   1      -5.999  -1.834  -2.267  0.00  0.00    -0.146 I 
ENDROOT
TORSDOF 0
ENDMDL
