MODEL 1
REMARK minimizedAffinity 14.60501
REMARK minimizedRMSD -1
REMARK  0 active torsions:
REMARK  status: ('A' for Active; 'I' for Inactive)
ROOT
ATOM      1  C   UNL d   1       3.942   6.000  -4.185  0.00  0.00     0.023 A 
ATOM      2  C1  UNL d   1       2.639   5.672  -4.558  0.00  0.00     0.003 A 
ATOM      3  C2  UNL d   1       2.357   4.407  -5.080  0.00  0.00     0.048 A 
ATOM      4  C3  UNL d   1       3.384   3.475  -5.224  0.00  0.00     0.023 A 
ATOM      5  C4  UNL d   1       4.690   3.798  -4.852  0.00  0.00     0.048 A 
ATOM      6  C5  UNL d   1       4.967   5.064  -4.332  0.00  0.00     0.003 A 
ATOM      7  I   UNL d   1       2.968   1.592  -6.000  0.00  0.00    -0.146 I 
ENDROOT
TORSDOF 0
ENDMDL
