MODEL 1
REMARK minimizedAffinity 12.4463825
REMARK minimizedRMSD -1
REMARK  0 active torsions:
REMARK  status: ('A' for Active; 'I' for Inactive)
ROOT
ATOM      1  C   UNL d   1       2.189   3.805  -1.925  0.00  0.00     0.023 A 
ATOM      2  C1  UNL d   1       1.273   2.885  -1.416  0.00  0.00     0.003 A 
ATOM      3  C2  UNL d   1       1.210   1.594  -1.944  0.00  0.00     0.048 A 
ATOM      4  C3  UNL d   1       2.067   1.229  -2.982  0.00  0.00     0.023 A 
ATOM      5  C4  UNL d   1       2.986   2.146  -3.495  0.00  0.00     0.048 A 
ATOM      6  C5  UNL d   1       3.045   3.436  -2.963  0.00  0.00     0.003 A 
ATOM      7  I   UNL d   1       1.975  -0.692  -3.770  0.00  0.00    -0.146 I 
ENDROOT
TORSDOF 0
ENDMDL
