MODEL 1
REMARK minimizedAffinity 8.31649303
REMARK minimizedRMSD -1
REMARK  0 active torsions:
REMARK  status: ('A' for Active; 'I' for Inactive)
ROOT
ATOM      1  C   UNL d   1       1.309   0.869  -1.593  0.00  0.00     0.023 A 
ATOM      2  C1  UNL d   1       2.040   0.481  -2.716  0.00  0.00     0.003 A 
ATOM      3  C2  UNL d   1       2.731   1.436  -3.465  0.00  0.00     0.048 A 
ATOM      4  C3  UNL d   1       2.688   2.777  -3.084  0.00  0.00     0.023 A 
ATOM      5  C4  UNL d   1       1.959   3.169  -1.960  0.00  0.00     0.048 A 
ATOM      6  C5  UNL d   1       1.268   2.211  -1.216  0.00  0.00     0.003 A 
ATOM      7  I   UNL d   1       3.717   4.200  -4.195  0.00  0.00    -0.146 I 
ENDROOT
TORSDOF 0
ENDMDL
