MODEL 1
REMARK minimizedAffinity 9.48279858
REMARK minimizedRMSD -1
REMARK  0 active torsions:
REMARK  status: ('A' for Active; 'I' for Inactive)
ROOT
ATOM      1  C   UNL d   1      -5.253  -1.363  -3.006  0.00  0.00     0.023 A 
ATOM      2  C1  UNL d   1      -5.651  -1.675  -1.705  0.00  0.00     0.003 A 
ATOM      3  C2  UNL d   1      -5.678  -3.005  -1.282  0.00  0.00     0.048 A 
ATOM      4  C3  UNL d   1      -5.305  -4.019  -2.164  0.00  0.00     0.023 A 
ATOM      5  C4  UNL d   1      -4.905  -3.712  -3.465  0.00  0.00     0.048 A 
ATOM      6  C5  UNL d   1      -4.880  -2.380  -3.884  0.00  0.00     0.003 A 
ATOM      7  I   UNL d   1      -5.344  -6.000  -1.536  0.00  0.00    -0.146 I 
ENDROOT
TORSDOF 0
ENDMDL
