MODEL 1
REMARK minimizedAffinity 13.2453537
REMARK minimizedRMSD -1
REMARK  0 active torsions:
REMARK  status: ('A' for Active; 'I' for Inactive)
ROOT
ATOM      1  C   UNL d   1      -2.081  -3.147  -5.999  0.00  0.00     0.023 A 
ATOM      2  C1  UNL d   1      -2.118  -1.764  -5.823  0.00  0.00     0.003 A 
ATOM      3  C2  UNL d   1      -0.980  -1.083  -5.385  0.00  0.00     0.048 A 
ATOM      4  C3  UNL d   1       0.192  -1.792  -5.125  0.00  0.00     0.023 A 
ATOM      5  C4  UNL d   1       0.234  -3.177  -5.301  0.00  0.00     0.048 A 
ATOM      6  C5  UNL d   1      -0.906  -3.853  -5.738  0.00  0.00     0.003 A 
ATOM      7  I   UNL d   1       1.887  -0.782  -4.473  0.00  0.00    -0.146 I 
ENDROOT
TORSDOF 0
ENDMDL
