MODEL 1
REMARK minimizedAffinity 15.4302912
REMARK minimizedRMSD -1
REMARK  0 active torsions:
REMARK  status: ('A' for Active; 'I' for Inactive)
ROOT
ATOM      1  C   UNL d   1       1.798  -2.066  -4.776  0.00  0.00     0.023 A 
ATOM      2  C1  UNL d   1       2.173  -0.737  -4.973  0.00  0.00     0.003 A 
ATOM      3  C2  UNL d   1       1.928   0.214  -3.980  0.00  0.00     0.048 A 
ATOM      4  C3  UNL d   1       1.307  -0.171  -2.792  0.00  0.00     0.023 A 
ATOM      5  C4  UNL d   1       0.930  -1.499  -2.590  0.00  0.00     0.048 A 
ATOM      6  C5  UNL d   1       1.177  -2.446  -3.586  0.00  0.00     0.003 A 
ATOM      7  I   UNL d   1       0.941   1.243  -1.313  0.00  0.00    -0.146 I 
ENDROOT
TORSDOF 0
ENDMDL
