MODEL 1
REMARK minimizedAffinity -5.66658688
REMARK minimizedRMSD -1
REMARK  3 active torsions:
REMARK  status: ('A' for Active; 'I' for Inactive)
REMARK    1  A    between atoms: C3'_2  and  C2'_3 
REMARK    2  A    between atoms: C2'_3  and  C1'_4 
REMARK    3  A    between atoms: C1'_4  and  C1_5 
ROOT
ATOM      1  C1  N4B d   1       0.091  -0.299   0.110  0.00  0.00    -0.075 A 
ATOM      2  C2  N4B d   1      -0.728  -0.286   1.260  0.00  0.00     0.002 A 
ATOM      3  C3  N4B d   1      -0.212  -0.666   2.475  0.00  0.00     0.002 A 
ATOM      4  C4  N4B d   1       1.110  -1.079   2.560  0.00  0.00    -0.004 A 
ATOM      5  C5  N4B d   1       1.901  -1.064   1.448  0.00  0.00     0.002 A 
ATOM      6  C6  N4B d   1       1.397  -0.681   0.222  0.00  0.00     0.002 A 
ENDROOT
BRANCH   1   7
ATOM      7  C1' N4B d   1      -0.452   0.025  -1.255  0.00  0.00     0.057 C 
BRANCH   7   8
ATOM      8  C2' N4B d   1      -0.025   1.438  -1.641  0.00  0.00     0.009 C 
BRANCH   8   9
ATOM      9  C3' N4B d   1      -1.071   2.135  -2.494  0.00  0.00     0.004 C 
ATOM     10  C4' N4B d   1      -1.118   3.616  -2.261  0.00  0.00     0.003 C 
ENDBRANCH   8   9
ENDBRANCH   7   8
ENDBRANCH   1   7
TORSDOF 3
ENDMDL
