MODEL 1
REMARK minimizedAffinity 1.27209079
REMARK minimizedRMSD -1
REMARK  3 active torsions:
REMARK  status: ('A' for Active; 'I' for Inactive)
REMARK    1  A    between atoms: C3'_2  and  C2'_3 
REMARK    2  A    between atoms: C2'_3  and  C1'_4 
REMARK    3  A    between atoms: C1'_4  and  C1_5 
ROOT
ATOM      1  C1  N4B d   1      -0.515   1.156  -0.984  0.00  0.00    -0.075 A 
ATOM      2  C2  N4B d   1       0.862   1.420  -1.154  0.00  0.00     0.002 A 
ATOM      3  C3  N4B d   1       1.267   2.555  -1.812  0.00  0.00     0.002 A 
ATOM      4  C4  N4B d   1       0.317   3.428  -2.322  0.00  0.00    -0.004 A 
ATOM      5  C5  N4B d   1      -1.010   3.179  -2.130  0.00  0.00     0.002 A 
ATOM      6  C6  N4B d   1      -1.432   2.043  -1.468  0.00  0.00     0.002 A 
ENDROOT
BRANCH   1   7
ATOM      7  C1' N4B d   1      -1.007  -0.115  -0.347  0.00  0.00     0.057 C 
BRANCH   7   8
ATOM      8  C2' N4B d   1      -1.502   0.190   1.064  0.00  0.00     0.009 C 
BRANCH   8   9
ATOM      9  C3' N4B d   1      -0.433  -0.071   2.110  0.00  0.00     0.004 C 
ATOM     10  C4' N4B d   1      -0.539  -1.437   2.720  0.00  0.00     0.003 C 
ENDBRANCH   8   9
ENDBRANCH   7   8
ENDBRANCH   1   7
TORSDOF 3
ENDMDL
