MODEL 1
REMARK minimizedAffinity -2.70631266
REMARK minimizedRMSD -1
REMARK  3 active torsions:
REMARK  status: ('A' for Active; 'I' for Inactive)
REMARK    1  A    between atoms: C3'_2  and  C2'_3 
REMARK    2  A    between atoms: C2'_3  and  C1'_4 
REMARK    3  A    between atoms: C1'_4  and  C1_5 
ROOT
ATOM      1  C1  N4B d   1      -0.624  -0.220   2.643  0.00  0.00    -0.075 A 
ATOM      2  C2  N4B d   1      -0.187  -1.139   1.664  0.00  0.00     0.002 A 
ATOM      3  C3  N4B d   1       1.093  -1.635   1.711  0.00  0.00     0.002 A 
ATOM      4  C4  N4B d   1       1.955  -1.215   2.712  0.00  0.00    -0.004 A 
ATOM      5  C5  N4B d   1       1.517  -0.346   3.669  0.00  0.00     0.002 A 
ATOM      6  C6  N4B d   1       0.232   0.158   3.636  0.00  0.00     0.002 A 
ENDROOT
BRANCH   1   7
ATOM      7  C1' N4B d   1      -1.986   0.415   2.584  0.00  0.00     0.057 C 
BRANCH   7   8
ATOM      8  C2' N4B d   1      -2.612   0.132   1.221  0.00  0.00     0.009 C 
BRANCH   8   9
ATOM      9  C3' N4B d   1      -3.952   0.828   1.056  0.00  0.00     0.004 C 
ATOM     10  C4' N4B d   1      -4.815   0.725   2.278  0.00  0.00     0.003 C 
ENDBRANCH   8   9
ENDBRANCH   7   8
ENDBRANCH   1   7
TORSDOF 3
ENDMDL
