MODEL 1
REMARK minimizedAffinity 21.090498
REMARK minimizedRMSD -1
REMARK  0 active torsions:
REMARK  status: ('A' for Active; 'I' for Inactive)
ROOT
ATOM      1  C4' PXY d   1       0.384  -0.325   1.569  0.00  0.00     0.077 C 
ATOM      2  C1' PXY d   1       0.020   3.383   5.988  0.00  0.00     0.077 C 
ATOM      3  C1  PXY d   1       0.103   2.413   4.826  0.00  0.00    -0.082 A 
ATOM      4  C2  PXY d   1       1.008   1.448   4.843  0.00  0.00     0.003 A 
ATOM      5  C3  PXY d   1       1.118   0.582   3.786  0.00  0.00     0.003 A 
ATOM      6  C4  PXY d   1       0.258   0.671   2.725  0.00  0.00    -0.082 A 
ATOM      7  C5  PXY d   1      -0.676   1.646   2.705  0.00  0.00     0.003 A 
ATOM      8  C6  PXY d   1      -0.744   2.541   3.769  0.00  0.00     0.003 A 
ENDROOT
TORSDOF 0
ENDMDL
