MODEL 1
REMARK minimizedAffinity 19.143877
REMARK minimizedRMSD -1
REMARK  0 active torsions:
REMARK  status: ('A' for Active; 'I' for Inactive)
ROOT
ATOM      1  C4' PXY d   1       2.001   0.533   4.340  0.00  0.00     0.077 C 
ATOM      2  C1' PXY d   1      -0.837  -1.874  -0.084  0.00  0.00     0.077 C 
ATOM      3  C1  PXY d   1      -0.096  -1.231   1.072  0.00  0.00    -0.082 A 
ATOM      4  C2  PXY d   1       0.876  -1.896   1.677  0.00  0.00     0.003 A 
ATOM      5  C3  PXY d   1       1.535  -1.342   2.744  0.00  0.00     0.003 A 
ATOM      6  C4  PXY d   1       1.232  -0.074   3.163  0.00  0.00    -0.082 A 
ATOM      7  C5  PXY d   1       0.250   0.615   2.544  0.00  0.00     0.003 A 
ATOM      8  C6  PXY d   1      -0.435   0.019   1.489  0.00  0.00     0.003 A 
ENDROOT
TORSDOF 0
ENDMDL
