MODEL 1
REMARK minimizedAffinity 6.63308954
REMARK minimizedRMSD -1
REMARK  0 active torsions:
REMARK  status: ('A' for Active; 'I' for Inactive)
ROOT
ATOM      1  C4' PXY d   1       5.015   2.565   4.290  0.00  0.00     0.077 C 
ATOM      2  C1' PXY d   1       4.519   5.996  -0.336  0.00  0.00     0.077 C 
ATOM      3  C1  PXY d   1       4.656   5.105   0.884  0.00  0.00    -0.082 A 
ATOM      4  C2  PXY d   1       4.547   3.793   0.751  0.00  0.00     0.003 A 
ATOM      5  C3  PXY d   1       4.636   2.975   1.848  0.00  0.00     0.003 A 
ATOM      6  C4  PXY d   1       4.893   3.502   3.085  0.00  0.00    -0.082 A 
ATOM      7  C5  PXY d   1       5.016   4.838   3.227  0.00  0.00     0.003 A 
ATOM      8  C6  PXY d   1       4.881   5.655   2.108  0.00  0.00     0.003 A 
ENDROOT
TORSDOF 0
ENDMDL
