MODEL 1
REMARK minimizedAffinity 8.7408886
REMARK minimizedRMSD -1
REMARK  0 active torsions:
REMARK  status: ('A' for Active; 'I' for Inactive)
ROOT
ATOM      1  C4' PXY d   1       4.804   1.399   4.763  0.00  0.00     0.077 C 
ATOM      2  C1' PXY d   1      -0.064  -0.239   2.110  0.00  0.00     0.077 C 
ATOM      3  C1  PXY d   1       1.206   0.192   2.817  0.00  0.00    -0.082 A 
ATOM      4  C2  PXY d   1       2.205   0.702   2.114  0.00  0.00     0.003 A 
ATOM      5  C3  PXY d   1       3.373   1.067   2.733  0.00  0.00     0.003 A 
ATOM      6  C4  PXY d   1       3.500   0.959   4.093  0.00  0.00    -0.082 A 
ATOM      7  C5  PXY d   1       2.481   0.450   4.817  0.00  0.00     0.003 A 
ATOM      8  C6  PXY d   1       1.320   0.047   4.165  0.00  0.00     0.003 A 
ENDROOT
TORSDOF 0
ENDMDL
