MODEL 1
REMARK minimizedAffinity 7.36083698
REMARK minimizedRMSD -1
REMARK  0 active torsions:
REMARK  status: ('A' for Active; 'I' for Inactive)
ROOT
ATOM      1  C4' PXY d   1      -2.148  -1.616  -3.535  0.00  0.00     0.077 C 
ATOM      2  C1' PXY d   1       3.204   0.118  -4.864  0.00  0.00     0.077 C 
ATOM      3  C1  PXY d   1       1.797  -0.334  -4.528  0.00  0.00    -0.082 A 
ATOM      4  C2  PXY d   1       1.392  -0.328  -3.268  0.00  0.00     0.003 A 
ATOM      5  C3  PXY d   1       0.133  -0.763  -2.943  0.00  0.00     0.003 A 
ATOM      6  C4  PXY d   1      -0.738  -1.159  -3.922  0.00  0.00    -0.082 A 
ATOM      7  C5  PXY d   1      -0.336  -1.158  -5.211  0.00  0.00     0.003 A 
ATOM      8  C6  PXY d   1       0.960  -0.751  -5.516  0.00  0.00     0.003 A 
ENDROOT
TORSDOF 0
ENDMDL
