MODEL 1
REMARK minimizedAffinity 18.6151886
REMARK minimizedRMSD -1
REMARK  0 active torsions:
REMARK  status: ('A' for Active; 'I' for Inactive)
ROOT
ATOM      1  C4' PXY d   1       0.998   0.244   1.645  0.00  0.00     0.077 C 
ATOM      2  C1' PXY d   1       5.369   0.985   5.354  0.00  0.00     0.077 C 
ATOM      3  C1  PXY d   1       4.229   0.798   4.373  0.00  0.00    -0.082 A 
ATOM      4  C2  PXY d   1       3.009   0.557   4.825  0.00  0.00     0.003 A 
ATOM      5  C3  PXY d   1       1.973   0.353   3.950  0.00  0.00     0.003 A 
ATOM      6  C4  PXY d   1       2.177   0.449   2.600  0.00  0.00    -0.082 A 
ATOM      7  C5  PXY d   1       3.417   0.706   2.131  0.00  0.00     0.003 A 
ATOM      8  C6  PXY d   1       4.463   0.869   3.034  0.00  0.00     0.003 A 
ENDROOT
TORSDOF 0
ENDMDL
