MODEL 1
REMARK minimizedAffinity 18.2395592
REMARK minimizedRMSD -1
REMARK  0 active torsions:
REMARK  status: ('A' for Active; 'I' for Inactive)
ROOT
ATOM      1  C4' PXY d   1      -1.900  -2.110  -1.045  0.00  0.00     0.077 C 
ATOM      2  C1' PXY d   1       1.775  -0.628  -5.254  0.00  0.00     0.077 C 
ATOM      3  C1  PXY d   1       0.813  -1.029  -4.153  0.00  0.00    -0.082 A 
ATOM      4  C2  PXY d   1      -0.109  -0.172  -3.745  0.00  0.00     0.003 A 
ATOM      5  C3  PXY d   1      -0.966  -0.507  -2.729  0.00  0.00     0.003 A 
ATOM      6  C4  PXY d   1      -0.914  -1.752  -2.160  0.00  0.00    -0.082 A 
ATOM      7  C5  PXY d   1       0.017  -2.635  -2.578  0.00  0.00     0.003 A 
ATOM      8  C6  PXY d   1       0.904  -2.261  -3.583  0.00  0.00     0.003 A 
ENDROOT
TORSDOF 0
ENDMDL
