MODEL 1
REMARK minimizedAffinity 15.3404751
REMARK minimizedRMSD -1
REMARK  0 active torsions:
REMARK  status: ('A' for Active; 'I' for Inactive)
ROOT
ATOM      1  C4' PXY d   1      -2.382  -3.679  -4.975  0.00  0.00     0.077 C 
ATOM      2  C1' PXY d   1       1.868   0.156  -4.172  0.00  0.00     0.077 C 
ATOM      3  C1  PXY d   1       0.750  -0.849  -4.370  0.00  0.00    -0.082 A 
ATOM      4  C2  PXY d   1       0.832  -1.734  -5.350  0.00  0.00     0.003 A 
ATOM      5  C3  PXY d   1      -0.185  -2.629  -5.563  0.00  0.00     0.003 A 
ATOM      6  C4  PXY d   1      -1.273  -2.653  -4.732  0.00  0.00    -0.082 A 
ATOM      7  C5  PXY d   1      -1.359  -1.759  -3.724  0.00  0.00     0.003 A 
ATOM      8  C6  PXY d   1      -0.336  -0.832  -3.549  0.00  0.00     0.003 A 
ENDROOT
TORSDOF 0
ENDMDL
