MODEL 1
REMARK minimizedAffinity 6.26595926
REMARK minimizedRMSD -1
REMARK  0 active torsions:
REMARK  status: ('A' for Active; 'I' for Inactive)
ROOT
ATOM      1  C4' PXY d   1       5.989   5.267  -5.428  0.00  0.00     0.077 C 
ATOM      2  C1' PXY d   1       3.829  -0.062  -4.837  0.00  0.00     0.077 C 
ATOM      3  C1  PXY d   1       4.400   1.334  -4.980  0.00  0.00    -0.082 A 
ATOM      4  C2  PXY d   1       3.850   2.182  -5.834  0.00  0.00     0.003 A 
ATOM      5  C3  PXY d   1       4.374   3.438  -5.999  0.00  0.00     0.003 A 
ATOM      6  C4  PXY d   1       5.439   3.849  -5.244  0.00  0.00    -0.082 A 
ATOM      7  C5  PXY d   1       6.000   2.994  -4.363  0.00  0.00     0.003 A 
ATOM      8  C6  PXY d   1       5.479   1.709  -4.240  0.00  0.00     0.003 A 
ENDROOT
TORSDOF 0
ENDMDL
