MODEL 1
REMARK minimizedAffinity 14.5149202
REMARK minimizedRMSD -1
REMARK  0 active torsions:
REMARK  status: ('A' for Active; 'I' for Inactive)
ROOT
ATOM      1  C4' PXY d   1      -2.933  -3.743  -1.243  0.00  0.00     0.077 C 
ATOM      2  C1' PXY d   1       0.611  -0.731  -4.676  0.00  0.00     0.077 C 
ATOM      3  C1  PXY d   1      -0.327  -1.521  -3.785  0.00  0.00    -0.082 A 
ATOM      4  C2  PXY d   1      -0.189  -1.459  -2.471  0.00  0.00     0.003 A 
ATOM      5  C3  PXY d   1      -1.008  -2.191  -1.651  0.00  0.00     0.003 A 
ATOM      6  C4  PXY d   1      -2.014  -2.955  -2.181  0.00  0.00    -0.082 A 
ATOM      7  C5  PXY d   1      -2.169  -3.016  -3.520  0.00  0.00     0.003 A 
ATOM      8  C6  PXY d   1      -1.300  -2.297  -4.336  0.00  0.00     0.003 A 
ENDROOT
TORSDOF 0
ENDMDL
