MODEL 1
REMARK minimizedAffinity 1.56585944
REMARK minimizedRMSD -1
REMARK  0 active torsions:
REMARK  status: ('A' for Active; 'I' for Inactive)
ROOT
ATOM      1  C4' PXY d   1       2.490  -2.249   6.000  0.00  0.00     0.077 C 
ATOM      2  C1' PXY d   1       0.751   1.408   1.875  0.00  0.00     0.077 C 
ATOM      3  C1  PXY d   1       1.218   0.456   2.958  0.00  0.00    -0.082 A 
ATOM      4  C2  PXY d   1       0.738  -0.776   2.998  0.00  0.00     0.003 A 
ATOM      5  C3  PXY d   1       1.125  -1.640   3.989  0.00  0.00     0.003 A 
ATOM      6  C4  PXY d   1       2.054  -1.256   4.919  0.00  0.00    -0.082 A 
ATOM      7  C5  PXY d   1       2.557  -0.004   4.879  0.00  0.00     0.003 A 
ATOM      8  C6  PXY d   1       2.120   0.871   3.889  0.00  0.00     0.003 A 
ENDROOT
TORSDOF 0
ENDMDL
