MODEL 1
REMARK minimizedAffinity 5.00168848
REMARK minimizedRMSD -1
REMARK  0 active torsions:
REMARK  status: ('A' for Active; 'I' for Inactive)
ROOT
ATOM      1  C   UNL d   1      -5.998  -1.119   3.307  0.00  0.00     0.023 A 
ATOM      2  C1  UNL d   1      -5.179  -0.405   4.181  0.00  0.00     0.003 A 
ATOM      3  C2  UNL d   1      -3.887  -0.043   3.792  0.00  0.00     0.048 A 
ATOM      4  C3  UNL d   1      -3.422  -0.399   2.527  0.00  0.00     0.023 A 
ATOM      5  C4  UNL d   1      -4.238  -1.113   1.648  0.00  0.00     0.048 A 
ATOM      6  C5  UNL d   1      -5.528  -1.473   2.042  0.00  0.00     0.003 A 
ATOM      7  I   UNL d   1      -1.500   0.138   1.945  0.00  0.00    -0.146 I 
ENDROOT
TORSDOF 0
ENDMDL
