MODEL 1
REMARK minimizedAffinity 0.337697566
REMARK minimizedRMSD -1
REMARK  0 active torsions:
REMARK  status: ('A' for Active; 'I' for Inactive)
ROOT
ATOM      1  C   UNL d   1      -5.953  -3.980  -6.000  0.00  0.00     0.023 A 
ATOM      2  C1  UNL d   1      -6.000  -3.194  -4.848  0.00  0.00     0.003 A 
ATOM      3  C2  UNL d   1      -5.774  -3.772  -3.597  0.00  0.00     0.048 A 
ATOM      4  C3  UNL d   1      -5.500  -5.136  -3.505  0.00  0.00     0.023 A 
ATOM      5  C4  UNL d   1      -5.451  -5.926  -4.655  0.00  0.00     0.048 A 
ATOM      6  C5  UNL d   1      -5.679  -5.344  -5.903  0.00  0.00     0.003 A 
ATOM      7  I   UNL d   1      -5.163  -5.998  -1.645  0.00  0.00    -0.146 I 
ENDROOT
TORSDOF 0
ENDMDL
