MODEL 1
REMARK minimizedAffinity 6.92551756
REMARK minimizedRMSD -1
REMARK  0 active torsions:
REMARK  status: ('A' for Active; 'I' for Inactive)
ROOT
ATOM      1  C   UNL d   1      -5.998  -4.072  -5.110  0.00  0.00     0.023 A 
ATOM      2  C1  UNL d   1      -5.554  -3.261  -4.065  0.00  0.00     0.003 A 
ATOM      3  C2  UNL d   1      -4.813  -3.812  -3.017  0.00  0.00     0.048 A 
ATOM      4  C3  UNL d   1      -4.519  -5.175  -3.021  0.00  0.00     0.023 A 
ATOM      5  C4  UNL d   1      -4.960  -5.990  -4.065  0.00  0.00     0.048 A 
ATOM      6  C5  UNL d   1      -5.701  -5.435  -5.110  0.00  0.00     0.003 A 
ATOM      7  I   UNL d   1      -3.416  -5.998  -1.464  0.00  0.00    -0.146 I 
ENDROOT
TORSDOF 0
ENDMDL
