MODEL 1
REMARK minimizedAffinity 6.44706154
REMARK minimizedRMSD -1
REMARK  0 active torsions:
REMARK  status: ('A' for Active; 'I' for Inactive)
ROOT
ATOM      1  C   UNL d   1      -6.000  -0.963   3.467  0.00  0.00     0.023 A 
ATOM      2  C1  UNL d   1      -5.181  -0.033   4.109  0.00  0.00     0.003 A 
ATOM      3  C2  UNL d   1      -3.967   0.345   3.532  0.00  0.00     0.048 A 
ATOM      4  C3  UNL d   1      -3.578  -0.208   2.313  0.00  0.00     0.023 A 
ATOM      5  C4  UNL d   1      -4.395  -1.137   1.666  0.00  0.00     0.048 A 
ATOM      6  C5  UNL d   1      -5.607  -1.514   2.247  0.00  0.00     0.003 A 
ATOM      7  I   UNL d   1      -1.772   0.354   1.452  0.00  0.00    -0.146 I 
ENDROOT
TORSDOF 0
ENDMDL
