MODEL 1
REMARK minimizedAffinity 0.158155888
REMARK minimizedRMSD -1
REMARK  0 active torsions:
REMARK  status: ('A' for Active; 'I' for Inactive)
ROOT
ATOM      1  C   UNL d   1      -5.944  -3.865  -5.999  0.00  0.00     0.023 A 
ATOM      2  C1  UNL d   1      -5.968  -5.255  -5.885  0.00  0.00     0.003 A 
ATOM      3  C2  UNL d   1      -5.505  -5.870  -4.719  0.00  0.00     0.048 A 
ATOM      4  C3  UNL d   1      -5.023  -5.088  -3.671  0.00  0.00     0.023 A 
ATOM      5  C4  UNL d   1      -4.998  -3.696  -3.779  0.00  0.00     0.048 A 
ATOM      6  C5  UNL d   1      -5.460  -3.087  -4.947  0.00  0.00     0.003 A 
ATOM      7  I   UNL d   1      -4.335  -6.000  -1.934  0.00  0.00    -0.146 I 
ENDROOT
TORSDOF 0
ENDMDL
