MODEL 1
REMARK minimizedAffinity 8.53946018
REMARK minimizedRMSD -1
REMARK  0 active torsions:
REMARK  status: ('A' for Active; 'I' for Inactive)
ROOT
ATOM      1  C   UNL d   1      -4.071   0.975   3.563  0.00  0.00     0.023 A 
ATOM      2  C1  UNL d   1      -5.445   0.757   3.665  0.00  0.00     0.003 A 
ATOM      3  C2  UNL d   1      -6.000  -0.436   3.198  0.00  0.00     0.048 A 
ATOM      4  C3  UNL d   1      -5.175  -1.408   2.632  0.00  0.00     0.023 A 
ATOM      5  C4  UNL d   1      -3.800  -1.194   2.528  0.00  0.00     0.048 A 
ATOM      6  C5  UNL d   1      -3.249   0.001   2.995  0.00  0.00     0.003 A 
ATOM      7  I   UNL d   1      -6.000  -3.184   1.937  0.00  0.00    -0.146 I 
ENDROOT
TORSDOF 0
ENDMDL
