MODEL 1
REMARK minimizedAffinity 6.03871107
REMARK minimizedRMSD -1
REMARK  0 active torsions:
REMARK  status: ('A' for Active; 'I' for Inactive)
ROOT
ATOM      1  C   UNL d   1      -5.998  -4.057  -5.462  0.00  0.00     0.023 A 
ATOM      2  C1  UNL d   1      -5.462  -3.228  -4.477  0.00  0.00     0.003 A 
ATOM      3  C2  UNL d   1      -4.911  -3.781  -3.320  0.00  0.00     0.048 A 
ATOM      4  C3  UNL d   1      -4.900  -5.166  -3.153  0.00  0.00     0.023 A 
ATOM      5  C4  UNL d   1      -5.435  -6.000  -4.136  0.00  0.00     0.048 A 
ATOM      6  C5  UNL d   1      -5.985  -5.442  -5.292  0.00  0.00     0.003 A 
ATOM      7  I   UNL d   1      -4.081  -5.993  -1.431  0.00  0.00    -0.146 I 
ENDROOT
TORSDOF 0
ENDMDL
