MODEL 1
REMARK minimizedAffinity 0.570717394
REMARK minimizedRMSD -1
REMARK  0 active torsions:
REMARK  status: ('A' for Active; 'I' for Inactive)
ROOT
ATOM      1  C   UNL d   1      -5.992  -3.809  -5.926  0.00  0.00     0.023 A 
ATOM      2  C1  UNL d   1      -5.999  -5.200  -5.831  0.00  0.00     0.003 A 
ATOM      3  C2  UNL d   1      -5.401  -5.830  -4.737  0.00  0.00     0.048 A 
ATOM      4  C3  UNL d   1      -4.799  -5.062  -3.741  0.00  0.00     0.023 A 
ATOM      5  C4  UNL d   1      -4.791  -3.669  -3.832  0.00  0.00     0.048 A 
ATOM      6  C5  UNL d   1      -5.388  -3.044  -4.928  0.00  0.00     0.003 A 
ATOM      7  I   UNL d   1      -3.910  -5.997  -2.112  0.00  0.00    -0.146 I 
ENDROOT
TORSDOF 0
ENDMDL
