MODEL 1
REMARK minimizedAffinity 1.37417889
REMARK minimizedRMSD -1
REMARK  0 active torsions:
REMARK  status: ('A' for Active; 'I' for Inactive)
ROOT
ATOM      1  C   UNL d   1      -4.552  -5.764  -3.008  0.00  0.00     0.023 A 
ATOM      2  C1  UNL d   1      -3.943  -4.510  -2.948  0.00  0.00     0.003 A 
ATOM      3  C2  UNL d   1      -4.357  -3.490  -3.806  0.00  0.00     0.048 A 
ATOM      4  C3  UNL d   1      -5.382  -3.729  -4.721  0.00  0.00     0.023 A 
ATOM      5  C4  UNL d   1      -5.995  -4.981  -4.784  0.00  0.00     0.048 A 
ATOM      6  C5  UNL d   1      -5.577  -5.999  -3.924  0.00  0.00     0.003 A 
ATOM      7  I   UNL d   1      -6.000  -2.211  -5.999  0.00  0.00    -0.146 I 
ENDROOT
TORSDOF 0
ENDMDL
