MODEL 1
REMARK minimizedAffinity 7.94671154
REMARK minimizedRMSD -1
REMARK  0 active torsions:
REMARK  status: ('A' for Active; 'I' for Inactive)
ROOT
ATOM      1  C   UNL d   1      -2.987   4.602   5.101  0.00  0.00     0.023 A 
ATOM      2  C1  UNL d   1      -3.072   4.658   3.710  0.00  0.00     0.003 A 
ATOM      3  C2  UNL d   1      -2.929   3.493   2.954  0.00  0.00     0.048 A 
ATOM      4  C3  UNL d   1      -2.702   2.275   3.595  0.00  0.00     0.023 A 
ATOM      5  C4  UNL d   1      -2.617   2.215   4.987  0.00  0.00     0.048 A 
ATOM      6  C5  UNL d   1      -2.760   3.383   5.739  0.00  0.00     0.003 A 
ATOM      7  I   UNL d   1      -2.489   0.540   2.471  0.00  0.00    -0.146 I 
ENDROOT
TORSDOF 0
ENDMDL
