MODEL 1
REMARK minimizedAffinity 1.70915282
REMARK minimizedRMSD -1
REMARK  0 active torsions:
REMARK  status: ('A' for Active; 'I' for Inactive)
ROOT
ATOM      1  C   UNL d   1       2.458   1.829  -2.469  0.00  0.00     0.023 A 
ATOM      2  C1  UNL d   1       2.013   0.915  -3.424  0.00  0.00     0.003 A 
ATOM      3  C2  UNL d   1       1.868  -0.433  -3.089  0.00  0.00     0.048 A 
ATOM      4  C3  UNL d   1       2.169  -0.860  -1.795  0.00  0.00     0.023 A 
ATOM      5  C4  UNL d   1       2.613   0.052  -0.836  0.00  0.00     0.048 A 
ATOM      6  C5  UNL d   1       2.757   1.398  -1.176  0.00  0.00     0.003 A 
ATOM      7  I   UNL d   1       1.953  -2.865  -1.293  0.00  0.00    -0.146 I 
ENDROOT
TORSDOF 0
ENDMDL
