MODEL 1
REMARK minimizedAffinity 1.48337674
REMARK minimizedRMSD -1
REMARK  0 active torsions:
REMARK  status: ('A' for Active; 'I' for Inactive)
ROOT
ATOM      1  C   UNL d   1      -5.811  -5.635  -2.651  0.00  0.00     0.023 A 
ATOM      2  C1  UNL d   1      -5.999  -4.498  -3.436  0.00  0.00     0.003 A 
ATOM      3  C2  UNL d   1      -4.903  -3.722  -3.819  0.00  0.00     0.048 A 
ATOM      4  C3  UNL d   1      -3.621  -4.090  -3.412  0.00  0.00     0.023 A 
ATOM      5  C4  UNL d   1      -3.427  -5.228  -2.627  0.00  0.00     0.048 A 
ATOM      6  C5  UNL d   1      -4.527  -5.999  -2.246  0.00  0.00     0.003 A 
ATOM      7  I   UNL d   1      -1.987  -2.938  -3.980  0.00  0.00    -0.146 I 
ENDROOT
TORSDOF 0
ENDMDL
