MODEL 1
REMARK minimizedAffinity 1.43712378
REMARK minimizedRMSD -1
REMARK  0 active torsions:
REMARK  status: ('A' for Active; 'I' for Inactive)
ROOT
ATOM      1  C   UNL d   1      -5.999  -4.075  -6.000  0.00  0.00     0.023 A 
ATOM      2  C1  UNL d   1      -5.676  -5.431  -5.945  0.00  0.00     0.003 A 
ATOM      3  C2  UNL d   1      -5.177  -5.984  -4.764  0.00  0.00     0.048 A 
ATOM      4  C3  UNL d   1      -5.007  -5.176  -3.640  0.00  0.00     0.023 A 
ATOM      5  C4  UNL d   1      -5.330  -3.819  -3.690  0.00  0.00     0.048 A 
ATOM      6  C5  UNL d   1      -5.827  -3.271  -4.874  0.00  0.00     0.003 A 
ATOM      7  I   UNL d   1      -4.266  -5.998  -1.880  0.00  0.00    -0.146 I 
ENDROOT
TORSDOF 0
ENDMDL
