MODEL 1
REMARK minimizedAffinity 0.680694103
REMARK minimizedRMSD -1
REMARK  0 active torsions:
REMARK  status: ('A' for Active; 'I' for Inactive)
ROOT
ATOM      1  C   UNL d   1      -4.752  -5.892  -3.395  0.00  0.00     0.023 A 
ATOM      2  C1  UNL d   1      -4.246  -4.646  -3.025  0.00  0.00     0.003 A 
ATOM      3  C2  UNL d   1      -4.603  -3.504  -3.746  0.00  0.00     0.048 A 
ATOM      4  C3  UNL d   1      -5.467  -3.616  -4.835  0.00  0.00     0.023 A 
ATOM      5  C4  UNL d   1      -5.976  -4.861  -5.208  0.00  0.00     0.048 A 
ATOM      6  C5  UNL d   1      -5.616  -6.000  -4.485  0.00  0.00     0.003 A 
ATOM      7  I   UNL d   1      -5.999  -1.919  -5.910  0.00  0.00    -0.146 I 
ENDROOT
TORSDOF 0
ENDMDL
