MODEL 1
REMARK minimizedAffinity 6.33086252
REMARK minimizedRMSD -1
REMARK  0 active torsions:
REMARK  status: ('A' for Active; 'I' for Inactive)
ROOT
ATOM      1  C   UNL d   1      -5.998  -4.068  -4.546  0.00  0.00     0.023 A 
ATOM      2  C1  UNL d   1      -5.995  -5.442  -4.307  0.00  0.00     0.003 A 
ATOM      3  C2  UNL d   1      -5.057  -5.998  -3.434  0.00  0.00     0.048 A 
ATOM      4  C3  UNL d   1      -4.126  -5.174  -2.803  0.00  0.00     0.023 A 
ATOM      5  C4  UNL d   1      -4.125  -3.798  -3.038  0.00  0.00     0.048 A 
ATOM      6  C5  UNL d   1      -5.064  -3.247  -3.912  0.00  0.00     0.003 A 
ATOM      7  I   UNL d   1      -2.729  -6.000  -1.504  0.00  0.00    -0.146 I 
ENDROOT
TORSDOF 0
ENDMDL
