MODEL 1
REMARK minimizedAffinity 8.22349167
REMARK minimizedRMSD -1
REMARK  0 active torsions:
REMARK  status: ('A' for Active; 'I' for Inactive)
ROOT
ATOM      1  C   UNL d   1      -6.000  -5.916  -4.965  0.00  0.00     0.023 A 
ATOM      2  C1  UNL d   1      -5.184  -5.739  -3.847  0.00  0.00     0.003 A 
ATOM      3  C2  UNL d   1      -4.357  -4.618  -3.755  0.00  0.00     0.048 A 
ATOM      4  C3  UNL d   1      -4.351  -3.677  -4.785  0.00  0.00     0.023 A 
ATOM      5  C4  UNL d   1      -5.165  -3.850  -5.905  0.00  0.00     0.048 A 
ATOM      6  C5  UNL d   1      -5.990  -4.973  -5.992  0.00  0.00     0.003 A 
ATOM      7  I   UNL d   1      -3.120  -2.007  -4.650  0.00  0.00    -0.146 I 
ENDROOT
TORSDOF 0
ENDMDL
