MODEL 1
REMARK minimizedAffinity 11.1480284
REMARK minimizedRMSD -1
REMARK  0 active torsions:
REMARK  status: ('A' for Active; 'I' for Inactive)
ROOT
ATOM      1  C   UNL d   1      -4.125   1.087   3.339  0.00  0.00     0.023 A 
ATOM      2  C1  UNL d   1      -5.460   0.889   3.692  0.00  0.00     0.003 A 
ATOM      3  C2  UNL d   1      -6.000  -0.399   3.697  0.00  0.00     0.048 A 
ATOM      4  C3  UNL d   1      -5.198  -1.485   3.349  0.00  0.00     0.023 A 
ATOM      5  C4  UNL d   1      -3.862  -1.293   2.996  0.00  0.00     0.048 A 
ATOM      6  C5  UNL d   1      -3.327  -0.003   2.991  0.00  0.00     0.003 A 
ATOM      7  I   UNL d   1      -5.999  -3.403   3.357  0.00  0.00    -0.146 I 
ENDROOT
TORSDOF 0
ENDMDL
