MODEL 1
REMARK minimizedAffinity 4.00006914
REMARK minimizedRMSD -1
REMARK  0 active torsions:
REMARK  status: ('A' for Active; 'I' for Inactive)
ROOT
ATOM      1  C2' OXE d   1      -3.082  -1.199   0.718  0.00  0.00     0.078 C 
ATOM      2  C1' OXE d   1      -5.026   0.771   0.252  0.00  0.00     0.078 C 
ATOM      3  C1  OXE d   1      -5.044   0.067   1.586  0.00  0.00    -0.078 A 
ATOM      4  C2  OXE d   1      -4.118  -0.928   1.787  0.00  0.00    -0.078 A 
ATOM      5  C3  OXE d   1      -4.055  -1.572   3.020  0.00  0.00     0.003 A 
ATOM      6  C4  OXE d   1      -5.024  -1.322   4.000  0.00  0.00    -0.002 A 
ATOM      7  C5  OXE d   1      -6.000  -0.340   3.800  0.00  0.00    -0.002 A 
ATOM      8  C6  OXE d   1      -5.997   0.392   2.617  0.00  0.00     0.003 A 
ENDROOT
TORSDOF 0
ENDMDL
