MODEL 1
REMARK minimizedAffinity 6.32112837
REMARK minimizedRMSD -1
REMARK  0 active torsions:
REMARK  status: ('A' for Active; 'I' for Inactive)
ROOT
ATOM      1  C2' OXE d   1      -1.335  -1.736  -5.922  0.00  0.00     0.078 C 
ATOM      2  C1' OXE d   1       0.823  -3.530  -5.887  0.00  0.00     0.078 C 
ATOM      3  C1  OXE d   1      -0.570  -4.107  -5.933  0.00  0.00    -0.078 A 
ATOM      4  C2  OXE d   1      -1.621  -3.222  -5.903  0.00  0.00    -0.078 A 
ATOM      5  C3  OXE d   1      -2.926  -3.699  -5.998  0.00  0.00     0.003 A 
ATOM      6  C4  OXE d   1      -3.182  -5.075  -5.969  0.00  0.00    -0.002 A 
ATOM      7  C5  OXE d   1      -2.126  -5.993  -5.960  0.00  0.00    -0.002 A 
ATOM      8  C6  OXE d   1      -0.817  -5.526  -5.985  0.00  0.00     0.003 A 
ENDROOT
TORSDOF 0
ENDMDL
