MODEL 1
REMARK minimizedAffinity 9.03211689
REMARK minimizedRMSD -1
REMARK  0 active torsions:
REMARK  status: ('A' for Active; 'I' for Inactive)
ROOT
ATOM      1  C2' OXE d   1      -4.722   4.710  -2.680  0.00  0.00     0.078 C 
ATOM      2  C1' OXE d   1      -3.867   2.102  -2.094  0.00  0.00     0.078 C 
ATOM      3  C1  OXE d   1      -2.813   3.135  -2.402  0.00  0.00    -0.078 A 
ATOM      4  C2  OXE d   1      -3.242   4.397  -2.733  0.00  0.00    -0.078 A 
ATOM      5  C3  OXE d   1      -2.309   5.402  -2.973  0.00  0.00     0.003 A 
ATOM      6  C4  OXE d   1      -0.943   5.102  -3.031  0.00  0.00    -0.002 A 
ATOM      7  C5  OXE d   1      -0.486   3.813  -2.736  0.00  0.00    -0.002 A 
ATOM      8  C6  OXE d   1      -1.403   2.831  -2.378  0.00  0.00     0.003 A 
ENDROOT
TORSDOF 0
ENDMDL
