MODEL 1
REMARK minimizedAffinity 9.3988657
REMARK minimizedRMSD -1
REMARK  0 active torsions:
REMARK  status: ('A' for Active; 'I' for Inactive)
ROOT
ATOM      1  C2' OXE d   1      -5.720   1.902   3.368  0.00  0.00     0.078 C 
ATOM      2  C1' OXE d   1      -2.991   1.469   2.872  0.00  0.00     0.078 C 
ATOM      3  C1  OXE d   1      -3.836   0.277   3.243  0.00  0.00    -0.078 A 
ATOM      4  C2  OXE d   1      -5.161   0.505   3.529  0.00  0.00    -0.078 A 
ATOM      5  C3  OXE d   1      -5.997  -0.568   3.824  0.00  0.00     0.003 A 
ATOM      6  C4  OXE d   1      -5.470  -1.855   3.981  0.00  0.00    -0.002 A 
ATOM      7  C5  OXE d   1      -4.116  -2.103   3.733  0.00  0.00    -0.002 A 
ATOM      8  C6  OXE d   1      -3.296  -1.058   3.322  0.00  0.00     0.003 A 
ENDROOT
TORSDOF 0
ENDMDL
