MODEL 1
REMARK minimizedAffinity 4.30649042
REMARK minimizedRMSD -1
REMARK  0 active torsions:
REMARK  status: ('A' for Active; 'I' for Inactive)
ROOT
ATOM      1  C2' OXE d   1       0.667   0.393   3.000  0.00  0.00     0.078 C 
ATOM      2  C1' OXE d   1       1.490  -1.960   1.709  0.00  0.00     0.078 C 
ATOM      3  C1  OXE d   1       1.479  -1.952   3.217  0.00  0.00    -0.078 A 
ATOM      4  C2  OXE d   1       1.120  -0.781   3.841  0.00  0.00    -0.078 A 
ATOM      5  C3  OXE d   1       1.041  -0.736   5.230  0.00  0.00     0.003 A 
ATOM      6  C4  OXE d   1       1.471  -1.823   6.000  0.00  0.00    -0.002 A 
ATOM      7  C5  OXE d   1       1.878  -3.011   5.385  0.00  0.00    -0.002 A 
ATOM      8  C6  OXE d   1       1.848  -3.106   3.998  0.00  0.00     0.003 A 
ENDROOT
TORSDOF 0
ENDMDL
