MODEL 1
REMARK minimizedAffinity 5.19855499
REMARK minimizedRMSD -1
REMARK  0 active torsions:
REMARK  status: ('A' for Active; 'I' for Inactive)
ROOT
ATOM      1  C2' OXE d   1      -5.412  -0.540   3.127  0.00  0.00     0.078 C 
ATOM      2  C1' OXE d   1      -2.937   0.784   3.144  0.00  0.00     0.078 C 
ATOM      3  C1  OXE d   1      -3.704   0.743   1.846  0.00  0.00    -0.078 A 
ATOM      4  C2  OXE d   1      -4.892   0.053   1.835  0.00  0.00    -0.078 A 
ATOM      5  C3  OXE d   1      -5.666   0.030   0.678  0.00  0.00     0.003 A 
ATOM      6  C4  OXE d   1      -5.173   0.572  -0.515  0.00  0.00    -0.002 A 
ATOM      7  C5  OXE d   1      -3.947   1.245  -0.536  0.00  0.00    -0.002 A 
ATOM      8  C6  OXE d   1      -3.221   1.376   0.643  0.00  0.00     0.003 A 
ENDROOT
TORSDOF 0
ENDMDL
