MODEL 1
REMARK minimizedAffinity 7.89193821
REMARK minimizedRMSD -1
REMARK  0 active torsions:
REMARK  status: ('A' for Active; 'I' for Inactive)
ROOT
ATOM      1  C2' OXE d   1      -5.999  -2.764   4.450  0.00  0.00     0.078 C 
ATOM      2  C1' OXE d   1      -3.195  -2.681   4.549  0.00  0.00     0.078 C 
ATOM      3  C1  OXE d   1      -3.911  -1.522   3.902  0.00  0.00    -0.078 A 
ATOM      4  C2  OXE d   1      -5.281  -1.593   3.817  0.00  0.00    -0.078 A 
ATOM      5  C3  OXE d   1      -5.994  -0.525   3.279  0.00  0.00     0.003 A 
ATOM      6  C4  OXE d   1      -5.321   0.550   2.686  0.00  0.00    -0.002 A 
ATOM      7  C5  OXE d   1      -3.925   0.623   2.727  0.00  0.00    -0.002 A 
ATOM      8  C6  OXE d   1      -3.208  -0.382   3.367  0.00  0.00     0.003 A 
ENDROOT
TORSDOF 0
ENDMDL
