MODEL 1
REMARK minimizedAffinity 8.66938877
REMARK minimizedRMSD -1
REMARK  0 active torsions:
REMARK  status: ('A' for Active; 'I' for Inactive)
ROOT
ATOM      1  C2' OXE d   1      -5.979  -3.155  -5.617  0.00  0.00     0.078 C 
ATOM      2  C1' OXE d   1      -5.999  -5.962  -5.669  0.00  0.00     0.078 C 
ATOM      3  C1  OXE d   1      -4.670  -5.271  -5.495  0.00  0.00    -0.078 A 
ATOM      4  C2  OXE d   1      -4.664  -3.897  -5.517  0.00  0.00    -0.078 A 
ATOM      5  C3  OXE d   1      -3.472  -3.209  -5.306  0.00  0.00     0.003 A 
ATOM      6  C4  OXE d   1      -2.259  -3.902  -5.224  0.00  0.00    -0.002 A 
ATOM      7  C5  OXE d   1      -2.237  -5.301  -5.239  0.00  0.00    -0.002 A 
ATOM      8  C6  OXE d   1      -3.436  -5.999  -5.330  0.00  0.00     0.003 A 
ENDROOT
TORSDOF 0
ENDMDL
