MODEL 1
REMARK minimizedAffinity -1.21298647
REMARK minimizedRMSD -1
REMARK  0 active torsions:
REMARK  status: ('A' for Active; 'I' for Inactive)
ROOT
ATOM      1  C   UNL d   1       2.591  -0.443  -1.902  0.00  0.00     0.172 C 
ATOM      2  N   UNL d   1       1.491  -0.094  -1.035  0.00  0.00    -0.070 N 
ATOM      3  C1  UNL d   1       0.620  -0.978  -0.456  0.00  0.00    -0.004 A 
ATOM      4  C2  UNL d   1      -0.281  -0.253   0.294  0.00  0.00    -0.047 A 
ATOM      5  C3  UNL d   1       0.060   1.114   0.160  0.00  0.00    -0.047 A 
ATOM      6  C4  UNL d   1       1.161   1.184  -0.668  0.00  0.00    -0.004 A 
ENDROOT
TORSDOF 0
ENDMDL
