MODEL 1
REMARK minimizedAffinity -2.5889957
REMARK minimizedRMSD -1
REMARK  0 active torsions:
REMARK  status: ('A' for Active; 'I' for Inactive)
ROOT
ATOM      1  C   UNL d   1      -0.804   0.008   0.934  0.00  0.00     0.172 C 
ATOM      2  N   UNL d   1       0.224   0.461   0.027  0.00  0.00    -0.070 N 
ATOM      3  C1  UNL d   1       0.752   1.724  -0.014  0.00  0.00    -0.004 A 
ATOM      4  C2  UNL d   1       1.702   1.752  -1.012  0.00  0.00    -0.047 A 
ATOM      5  C3  UNL d   1       1.746   0.462  -1.592  0.00  0.00    -0.047 A 
ATOM      6  C4  UNL d   1       0.821  -0.317  -0.929  0.00  0.00    -0.004 A 
ENDROOT
TORSDOF 0
ENDMDL
