MODEL 1
REMARK minimizedAffinity -3.7250762
REMARK minimizedRMSD -1
REMARK  0 active torsions:
REMARK  status: ('A' for Active; 'I' for Inactive)
ROOT
ATOM      1  C   UNL d   1      -0.416  -0.827   0.457  0.00  0.00     0.172 C 
ATOM      2  N   UNL d   1       0.456  -0.849  -0.694  0.00  0.00    -0.070 N 
ATOM      3  C1  UNL d   1       0.956   0.251  -1.339  0.00  0.00    -0.004 A 
ATOM      4  C2  UNL d   1       1.741  -0.191  -2.381  0.00  0.00    -0.047 A 
ATOM      5  C3  UNL d   1       1.711  -1.606  -2.364  0.00  0.00    -0.047 A 
ATOM      6  C4  UNL d   1       0.908  -1.987  -1.309  0.00  0.00    -0.004 A 
ENDROOT
TORSDOF 0
ENDMDL
