MODEL 1
REMARK minimizedAffinity -2.10762405
REMARK minimizedRMSD -1
REMARK  0 active torsions:
REMARK  status: ('A' for Active; 'I' for Inactive)
ROOT
ATOM      1  C   UNL d   1      -1.862   0.294   1.581  0.00  0.00     0.172 C 
ATOM      2  N   UNL d   1      -0.663   0.252   0.776  0.00  0.00    -0.070 N 
ATOM      3  C1  UNL d   1      -0.019   1.339   0.247  0.00  0.00    -0.004 A 
ATOM      4  C2  UNL d   1       1.077   0.881  -0.451  0.00  0.00    -0.047 A 
ATOM      5  C3  UNL d   1       1.091  -0.530  -0.339  0.00  0.00    -0.047 A 
ATOM      6  C4  UNL d   1       0.003  -0.892   0.426  0.00  0.00    -0.004 A 
ENDROOT
TORSDOF 0
ENDMDL
