MODEL 1
REMARK minimizedAffinity -0.495392293
REMARK minimizedRMSD -1
REMARK  0 active torsions:
REMARK  status: ('A' for Active; 'I' for Inactive)
ROOT
ATOM      1  C   UNL d   1      -2.478   5.999  -5.985  0.00  0.00     0.172 C 
ATOM      2  N   UNL d   1      -3.766   5.366  -5.828  0.00  0.00    -0.070 N 
ATOM      3  C1  UNL d   1      -3.975   4.056  -5.487  0.00  0.00    -0.004 A 
ATOM      4  C2  UNL d   1      -5.336   3.844  -5.440  0.00  0.00    -0.047 A 
ATOM      5  C3  UNL d   1      -5.967   5.069  -5.765  0.00  0.00    -0.047 A 
ATOM      6  C4  UNL d   1      -4.971   5.994  -6.000  0.00  0.00    -0.004 A 
ENDROOT
TORSDOF 0
ENDMDL
