MODEL 1
REMARK minimizedAffinity -2.16078472
REMARK minimizedRMSD -1
REMARK  0 active torsions:
REMARK  status: ('A' for Active; 'I' for Inactive)
ROOT
ATOM      1  C   UNL d   1      -0.315  -0.355   0.847  0.00  0.00     0.172 C 
ATOM      2  N   UNL d   1      -1.626   0.094   1.254  0.00  0.00    -0.070 N 
ATOM      3  C1  UNL d   1      -2.817  -0.407   0.803  0.00  0.00    -0.004 A 
ATOM      4  C2  UNL d   1      -3.831   0.286   1.429  0.00  0.00    -0.047 A 
ATOM      5  C3  UNL d   1      -3.227   1.236   2.286  0.00  0.00    -0.047 A 
ATOM      6  C4  UNL d   1      -1.862   1.096   2.158  0.00  0.00    -0.004 A 
ENDROOT
TORSDOF 0
ENDMDL
