MODEL 1
REMARK minimizedAffinity -2.31422162
REMARK minimizedRMSD -1
REMARK  0 active torsions:
REMARK  status: ('A' for Active; 'I' for Inactive)
ROOT
ATOM      1  C   UNL d   1      -2.616   0.159   0.764  0.00  0.00     0.172 C 
ATOM      2  N   UNL d   1      -1.214   0.291   0.447  0.00  0.00    -0.070 N 
ATOM      3  C1  UNL d   1      -0.178  -0.242   1.168  0.00  0.00    -0.004 A 
ATOM      4  C2  UNL d   1       0.997   0.107   0.539  0.00  0.00    -0.047 A 
ATOM      5  C3  UNL d   1       0.657   0.878  -0.598  0.00  0.00    -0.047 A 
ATOM      6  C4  UNL d   1      -0.718   0.976  -0.631  0.00  0.00    -0.004 A 
ENDROOT
TORSDOF 0
ENDMDL
