MODEL 1
REMARK minimizedAffinity -3.11704516
REMARK minimizedRMSD -1
REMARK  0 active torsions:
REMARK  status: ('A' for Active; 'I' for Inactive)
ROOT
ATOM      1  C   UNL d   1      -0.734   0.078   1.180  0.00  0.00     0.172 C 
ATOM      2  N   UNL d   1       0.219   0.416   0.148  0.00  0.00    -0.070 N 
ATOM      3  C1  UNL d   1       1.087   1.475   0.179  0.00  0.00    -0.004 A 
ATOM      4  C2  UNL d   1       1.823   1.451  -0.986  0.00  0.00    -0.047 A 
ATOM      5  C3  UNL d   1       1.382   0.340  -1.743  0.00  0.00    -0.047 A 
ATOM      6  C4  UNL d   1       0.388  -0.283  -1.018  0.00  0.00    -0.004 A 
ENDROOT
TORSDOF 0
ENDMDL
