MODEL 1
REMARK minimizedAffinity -1.92154944
REMARK minimizedRMSD -1
REMARK  0 active torsions:
REMARK  status: ('A' for Active; 'I' for Inactive)
ROOT
ATOM      1  C   UNL d   1      -1.063   0.073   1.151  0.00  0.00     0.172 C 
ATOM      2  N   UNL d   1      -0.045   0.412   0.185  0.00  0.00    -0.070 N 
ATOM      3  C1  UNL d   1       0.226  -0.280  -0.966  0.00  0.00    -0.004 A 
ATOM      4  C2  UNL d   1       1.262   0.362  -1.610  0.00  0.00    -0.047 A 
ATOM      5  C3  UNL d   1       1.627   1.477  -0.819  0.00  0.00    -0.047 A 
ATOM      6  C4  UNL d   1       0.802   1.484   0.286  0.00  0.00    -0.004 A 
ENDROOT
TORSDOF 0
ENDMDL
