MODEL 1
REMARK minimizedAffinity -2.52452517
REMARK minimizedRMSD -1
REMARK  0 active torsions:
REMARK  status: ('A' for Active; 'I' for Inactive)
ROOT
ATOM      1  C   UNL d   1      -0.653  -0.109   1.193  0.00  0.00     0.172 C 
ATOM      2  N   UNL d   1       0.316  -0.169   0.124  0.00  0.00    -0.070 N 
ATOM      3  C1  UNL d   1       0.875   0.910  -0.508  0.00  0.00    -0.004 A 
ATOM      4  C2  UNL d   1       1.747   0.434  -1.463  0.00  0.00    -0.047 A 
ATOM      5  C3  UNL d   1       1.709  -0.979  -1.405  0.00  0.00    -0.047 A 
ATOM      6  C4  UNL d   1       0.815  -1.326  -0.414  0.00  0.00    -0.004 A 
ENDROOT
TORSDOF 0
ENDMDL
