MODEL 1
REMARK minimizedAffinity -0.926397681
REMARK minimizedRMSD -1
REMARK  0 active torsions:
REMARK  status: ('A' for Active; 'I' for Inactive)
ROOT
ATOM      1  C   UNL d   1       1.872   0.335  -1.764  0.00  0.00     0.172 C 
ATOM      2  N   UNL d   1       1.003  -0.135  -0.711  0.00  0.00    -0.070 N 
ATOM      3  C1  UNL d   1       0.542   0.616   0.338  0.00  0.00    -0.004 A 
ATOM      4  C2  UNL d   1      -0.256  -0.194   1.118  0.00  0.00    -0.047 A 
ATOM      5  C3  UNL d   1      -0.274  -1.475   0.518  0.00  0.00    -0.047 A 
ATOM      6  C4  UNL d   1       0.513  -1.411  -0.613  0.00  0.00    -0.004 A 
ENDROOT
TORSDOF 0
ENDMDL
