MODEL 1
REMARK minimizedAffinity -2.19723892
REMARK minimizedRMSD -1
REMARK  0 active torsions:
REMARK  status: ('A' for Active; 'I' for Inactive)
ROOT
ATOM      1  C   UNL d   1      -0.674   0.014   0.800  0.00  0.00     0.172 C 
ATOM      2  N   UNL d   1      -1.927   0.379   1.420  0.00  0.00    -0.070 N 
ATOM      3  C1  UNL d   1      -2.066   1.127   2.558  0.00  0.00    -0.004 A 
ATOM      4  C2  UNL d   1      -3.414   1.252   2.819  0.00  0.00    -0.047 A 
ATOM      5  C3  UNL d   1      -4.108   0.553   1.803  0.00  0.00    -0.047 A 
ATOM      6  C4  UNL d   1      -3.163   0.023   0.950  0.00  0.00    -0.004 A 
ENDROOT
TORSDOF 0
ENDMDL
