MODEL 1
REMARK minimizedAffinity -1.72576046
REMARK minimizedRMSD -1
REMARK  0 active torsions:
REMARK  status: ('A' for Active; 'I' for Inactive)
ROOT
ATOM      1  C   UNL d   1       1.454  -1.959  -0.331  0.00  0.00     0.172 C 
ATOM      2  N   UNL d   1       1.676  -0.761  -1.106  0.00  0.00    -0.070 N 
ATOM      3  C1  UNL d   1       1.659   0.519  -0.620  0.00  0.00    -0.004 A 
ATOM      4  C2  UNL d   1       1.914   1.373  -1.671  0.00  0.00    -0.047 A 
ATOM      5  C3  UNL d   1       2.089   0.579  -2.829  0.00  0.00    -0.047 A 
ATOM      6  C4  UNL d   1       1.936  -0.738  -2.451  0.00  0.00    -0.004 A 
ENDROOT
TORSDOF 0
ENDMDL
