MODEL 1
REMARK minimizedAffinity -0.349926919
REMARK minimizedRMSD -1
REMARK  3 active torsions:
REMARK  status: ('A' for Active; 'I' for Inactive)
REMARK    1  A    between atoms: C3'_2  and  C2'_3 
REMARK    2  A    between atoms: C2'_3  and  C1'_4 
REMARK    3  A    between atoms: C1'_4  and  C1_5 
ROOT
ATOM      1  C1  N4B d   1      -0.338   2.831   0.003  0.00  0.00    -0.075 A 
ATOM      2  C2  N4B d   1      -0.292   2.978  -1.401  0.00  0.00     0.002 A 
ATOM      3  C3  N4B d   1       0.059   4.185  -1.954  0.00  0.00     0.002 A 
ATOM      4  C4  N4B d   1       0.348   5.260  -1.127  0.00  0.00    -0.004 A 
ATOM      5  C5  N4B d   1       0.326   5.103   0.228  0.00  0.00     0.002 A 
ATOM      6  C6  N4B d   1      -0.021   3.895   0.798  0.00  0.00     0.002 A 
ENDROOT
BRANCH   1   7
ATOM      7  C1' N4B d   1      -0.799   1.556   0.654  0.00  0.00     0.057 C 
BRANCH   7   8
ATOM      8  C2' N4B d   1      -1.145   1.835   2.114  0.00  0.00     0.009 C 
BRANCH   8   9
ATOM      9  C3' N4B d   1      -2.396   1.094   2.553  0.00  0.00     0.004 C 
ATOM     10  C4' N4B d   1      -2.142   0.148   3.689  0.00  0.00     0.003 C 
ENDBRANCH   8   9
ENDBRANCH   7   8
ENDBRANCH   1   7
TORSDOF 3
ENDMDL
