MODEL 1
REMARK minimizedAffinity 6.68803787
REMARK minimizedRMSD -1
REMARK  3 active torsions:
REMARK  status: ('A' for Active; 'I' for Inactive)
REMARK    1  A    between atoms: C3'_2  and  C2'_3 
REMARK    2  A    between atoms: C2'_3  and  C1'_4 
REMARK    3  A    between atoms: C1'_4  and  C1_5 
ROOT
ATOM      1  C1  N4B d   1      -0.451   3.444   0.235  0.00  0.00    -0.075 A 
ATOM      2  C2  N4B d   1      -1.692   3.082   0.804  0.00  0.00     0.002 A 
ATOM      3  C3  N4B d   1      -1.745   2.113   1.775  0.00  0.00     0.002 A 
ATOM      4  C4  N4B d   1      -0.578   1.481   2.178  0.00  0.00    -0.004 A 
ATOM      5  C5  N4B d   1       0.619   1.855   1.642  0.00  0.00     0.002 A 
ATOM      6  C6  N4B d   1       0.688   2.830   0.668  0.00  0.00     0.002 A 
ENDROOT
BRANCH   1   7
ATOM      7  C1' N4B d   1      -0.353   4.437  -0.891  0.00  0.00     0.057 C 
BRANCH   7   8
ATOM      8  C2' N4B d   1      -0.233   3.685  -2.213  0.00  0.00     0.009 C 
BRANCH   8   9
ATOM      9  C3' N4B d   1      -1.508   3.770  -3.034  0.00  0.00     0.004 C 
ATOM     10  C4' N4B d   1      -1.391   3.084  -4.362  0.00  0.00     0.003 C 
ENDBRANCH   8   9
ENDBRANCH   7   8
ENDBRANCH   1   7
TORSDOF 3
ENDMDL
