MODEL 1
REMARK minimizedAffinity 1.73361206
REMARK minimizedRMSD -1
REMARK  3 active torsions:
REMARK  status: ('A' for Active; 'I' for Inactive)
REMARK    1  A    between atoms: C3'_2  and  C2'_3 
REMARK    2  A    between atoms: C2'_3  and  C1'_4 
REMARK    3  A    between atoms: C1'_4  and  C1_5 
ROOT
ATOM      1  C1  N4B d   1       0.369   3.474   0.639  0.00  0.00    -0.075 A 
ATOM      2  C2  N4B d   1       1.143   3.607   1.813  0.00  0.00     0.002 A 
ATOM      3  C3  N4B d   1       0.819   2.883   2.934  0.00  0.00     0.002 A 
ATOM      4  C4  N4B d   1      -0.281   2.039   2.911  0.00  0.00    -0.004 A 
ATOM      5  C5  N4B d   1      -1.008   1.897   1.765  0.00  0.00     0.002 A 
ATOM      6  C6  N4B d   1      -0.691   2.615   0.630  0.00  0.00     0.002 A 
ENDROOT
BRANCH   1   7
ATOM      7  C1' N4B d   1       0.633   4.309  -0.585  0.00  0.00     0.057 C 
BRANCH   7   8
ATOM      8  C2' N4B d   1       0.515   3.430  -1.826  0.00  0.00     0.009 C 
BRANCH   8   9
ATOM      9  C3' N4B d   1      -0.515   3.966  -2.806  0.00  0.00     0.004 C 
ATOM     10  C4' N4B d   1      -1.039   2.910  -3.733  0.00  0.00     0.003 C 
ENDBRANCH   8   9
ENDBRANCH   7   8
ENDBRANCH   1   7
TORSDOF 3
ENDMDL
