MODEL 1
REMARK minimizedAffinity 5.42911625
REMARK minimizedRMSD -1
REMARK  3 active torsions:
REMARK  status: ('A' for Active; 'I' for Inactive)
REMARK    1  A    between atoms: C3'_2  and  C2'_3 
REMARK    2  A    between atoms: C2'_3  and  C1'_4 
REMARK    3  A    between atoms: C1'_4  and  C1_5 
ROOT
ATOM      1  C1  N4B d   1      -0.404   3.065  -0.242  0.00  0.00    -0.075 A 
ATOM      2  C2  N4B d   1      -1.302   2.233  -0.946  0.00  0.00     0.002 A 
ATOM      3  C3  N4B d   1      -1.589   2.493  -2.264  0.00  0.00     0.002 A 
ATOM      4  C4  N4B d   1      -1.008   3.586  -2.889  0.00  0.00    -0.004 A 
ATOM      5  C5  N4B d   1      -0.123   4.370  -2.209  0.00  0.00     0.002 A 
ATOM      6  C6  N4B d   1       0.179   4.117  -0.886  0.00  0.00     0.002 A 
ENDROOT
BRANCH   1   7
ATOM      7  C1' N4B d   1      -0.125   2.871   1.224  0.00  0.00     0.057 C 
BRANCH   7   8
ATOM      8  C2' N4B d   1      -1.405   2.420   1.922  0.00  0.00     0.009 C 
BRANCH   8   9
ATOM      9  C3' N4B d   1      -1.150   1.283   2.896  0.00  0.00     0.004 C 
ATOM     10  C4' N4B d   1      -2.210   0.223   2.840  0.00  0.00     0.003 C 
ENDBRANCH   8   9
ENDBRANCH   7   8
ENDBRANCH   1   7
TORSDOF 3
ENDMDL
