MODEL 1
REMARK minimizedAffinity 8.21338654
REMARK minimizedRMSD -1
REMARK  3 active torsions:
REMARK  status: ('A' for Active; 'I' for Inactive)
REMARK    1  A    between atoms: C3'_2  and  C2'_3 
REMARK    2  A    between atoms: C2'_3  and  C1'_4 
REMARK    3  A    between atoms: C1'_4  and  C1_5 
ROOT
ATOM      1  C1  N4B d   1       0.061   2.417  -0.157  0.00  0.00    -0.075 A 
ATOM      2  C2  N4B d   1       0.679   3.633   0.211  0.00  0.00     0.002 A 
ATOM      3  C3  N4B d   1       0.771   4.658  -0.698  0.00  0.00     0.002 A 
ATOM      4  C4  N4B d   1       0.272   4.485  -1.980  0.00  0.00    -0.004 A 
ATOM      5  C5  N4B d   1      -0.346   3.317  -2.320  0.00  0.00     0.002 A 
ATOM      6  C6  N4B d   1      -0.449   2.280  -1.415  0.00  0.00     0.002 A 
ENDROOT
BRANCH   1   7
ATOM      7  C1' N4B d   1       0.012   1.237   0.775  0.00  0.00     0.057 C 
BRANCH   7   8
ATOM      8  C2' N4B d   1      -1.238   1.336   1.644  0.00  0.00     0.009 C 
BRANCH   8   9
ATOM      9  C3' N4B d   1      -0.975   0.889   3.072  0.00  0.00     0.004 C 
ATOM     10  C4' N4B d   1      -2.192   0.318   3.735  0.00  0.00     0.003 C 
ENDBRANCH   8   9
ENDBRANCH   7   8
ENDBRANCH   1   7
TORSDOF 3
ENDMDL
