MODEL 1
REMARK minimizedAffinity 12.1038332
REMARK minimizedRMSD -1
REMARK  3 active torsions:
REMARK  status: ('A' for Active; 'I' for Inactive)
REMARK    1  A    between atoms: C3'_2  and  C2'_3 
REMARK    2  A    between atoms: C2'_3  and  C1'_4 
REMARK    3  A    between atoms: C1'_4  and  C1_5 
ROOT
ATOM      1  C1  N4B d   1      -5.504  -3.740   3.231  0.00  0.00    -0.075 A 
ATOM      2  C2  N4B d   1      -6.000  -4.970   3.717  0.00  0.00     0.002 A 
ATOM      3  C3  N4B d   1      -5.656  -5.400   4.975  0.00  0.00     0.002 A 
ATOM      4  C4  N4B d   1      -4.806  -4.630   5.754  0.00  0.00    -0.004 A 
ATOM      5  C5  N4B d   1      -4.352  -3.431   5.287  0.00  0.00     0.002 A 
ATOM      6  C6  N4B d   1      -4.693  -2.984   4.026  0.00  0.00     0.002 A 
ENDROOT
BRANCH   1   7
ATOM      7  C1' N4B d   1      -5.783  -3.270   1.829  0.00  0.00     0.057 C 
BRANCH   7   8
ATOM      8  C2' N4B d   1      -4.472  -2.853   1.171  0.00  0.00     0.009 C 
BRANCH   8   9
ATOM      9  C3' N4B d   1      -4.574  -1.486   0.515  0.00  0.00     0.004 C 
ATOM     10  C4' N4B d   1      -5.684  -0.652   1.082  0.00  0.00     0.003 C 
ENDBRANCH   8   9
ENDBRANCH   7   8
ENDBRANCH   1   7
TORSDOF 3
ENDMDL
