MODEL 1
REMARK minimizedAffinity 3.21990657
REMARK minimizedRMSD -1
REMARK  3 active torsions:
REMARK  status: ('A' for Active; 'I' for Inactive)
REMARK    1  A    between atoms: C3'_2  and  C2'_3 
REMARK    2  A    between atoms: C2'_3  and  C1'_4 
REMARK    3  A    between atoms: C1'_4  and  C1_5 
ROOT
ATOM      1  C1  N4B d   1      -1.321   1.574   2.521  0.00  0.00    -0.075 A 
ATOM      2  C2  N4B d   1       0.061   1.594   2.814  0.00  0.00     0.002 A 
ATOM      3  C3  N4B d   1       0.927   2.273   1.992  0.00  0.00     0.002 A 
ATOM      4  C4  N4B d   1       0.439   2.921   0.867  0.00  0.00    -0.004 A 
ATOM      5  C5  N4B d   1      -0.900   2.918   0.606  0.00  0.00     0.002 A 
ATOM      6  C6  N4B d   1      -1.782   2.243   1.425  0.00  0.00     0.002 A 
ENDROOT
BRANCH   1   7
ATOM      7  C1' N4B d   1      -2.295   0.773   3.342  0.00  0.00     0.057 C 
BRANCH   7   8
ATOM      8  C2' N4B d   1      -1.521  -0.179   4.249  0.00  0.00     0.009 C 
BRANCH   8   9
ATOM      9  C3' N4B d   1      -2.292  -1.459   4.519  0.00  0.00     0.004 C 
ATOM     10  C4' N4B d   1      -1.402  -2.606   4.895  0.00  0.00     0.003 C 
ENDBRANCH   8   9
ENDBRANCH   7   8
ENDBRANCH   1   7
TORSDOF 3
ENDMDL
