MODEL 1
REMARK minimizedAffinity -4.392766
REMARK minimizedRMSD -1
REMARK  3 active torsions:
REMARK  status: ('A' for Active; 'I' for Inactive)
REMARK    1  A    between atoms: C3'_2  and  C2'_3 
REMARK    2  A    between atoms: C2'_3  and  C1'_4 
REMARK    3  A    between atoms: C1'_4  and  C1_5 
ROOT
ATOM      1  C1  N4B d   1      -5.373  -1.752  -1.186  0.00  0.00    -0.075 A 
ATOM      2  C2  N4B d   1      -5.945  -1.157  -2.331  0.00  0.00     0.002 A 
ATOM      3  C3  N4B d   1      -5.402  -0.008  -2.852  0.00  0.00     0.002 A 
ATOM      4  C4  N4B d   1      -4.302   0.571  -2.237  0.00  0.00    -0.004 A 
ATOM      5  C5  N4B d   1      -3.740  -0.025  -1.146  0.00  0.00     0.002 A 
ATOM      6  C6  N4B d   1      -4.273  -1.181  -0.614  0.00  0.00     0.002 A 
ENDROOT
BRANCH   1   7
ATOM      7  C1' N4B d   1      -5.983  -2.960  -0.529  0.00  0.00     0.057 C 
BRANCH   7   8
ATOM      8  C2' N4B d   1      -5.338  -3.167   0.838  0.00  0.00     0.009 C 
BRANCH   8   9
ATOM      9  C3' N4B d   1      -5.999  -4.293   1.614  0.00  0.00     0.004 C 
ATOM     10  C4' N4B d   1      -5.467  -4.428   3.009  0.00  0.00     0.003 C 
ENDBRANCH   8   9
ENDBRANCH   7   8
ENDBRANCH   1   7
TORSDOF 3
ENDMDL
