MODEL 1
REMARK minimizedAffinity -2.20132661
REMARK minimizedRMSD -1
REMARK  3 active torsions:
REMARK  status: ('A' for Active; 'I' for Inactive)
REMARK    1  A    between atoms: C3'_2  and  C2'_3 
REMARK    2  A    between atoms: C2'_3  and  C1'_4 
REMARK    3  A    between atoms: C1'_4  and  C1_5 
ROOT
ATOM      1  C1  N4B d   1      -3.669  -3.007   4.878  0.00  0.00    -0.075 A 
ATOM      2  C2  N4B d   1      -4.845  -2.879   5.649  0.00  0.00     0.002 A 
ATOM      3  C3  N4B d   1      -5.996  -3.519   5.258  0.00  0.00     0.002 A 
ATOM      4  C4  N4B d   1      -5.999  -4.274   4.095  0.00  0.00    -0.004 A 
ATOM      5  C5  N4B d   1      -4.853  -4.413   3.369  0.00  0.00     0.002 A 
ATOM      6  C6  N4B d   1      -3.688  -3.779   3.752  0.00  0.00     0.002 A 
ENDROOT
BRANCH   1   7
ATOM      7  C1' N4B d   1      -2.411  -2.257   5.219  0.00  0.00     0.057 C 
BRANCH   7   8
ATOM      8  C2' N4B d   1      -1.306  -2.666   4.249  0.00  0.00     0.009 C 
BRANCH   8   9
ATOM      9  C3' N4B d   1      -0.568  -1.463   3.688  0.00  0.00     0.004 C 
ATOM     10  C4' N4B d   1      -1.464  -0.280   3.473  0.00  0.00     0.003 C 
ENDBRANCH   8   9
ENDBRANCH   7   8
ENDBRANCH   1   7
TORSDOF 3
ENDMDL
