MODEL 1
REMARK minimizedAffinity 5.85451174
REMARK minimizedRMSD -1
REMARK  1 active torsions:
REMARK  status: ('A' for Active; 'I' for Inactive)
REMARK    1  A    between atoms: C1_2  and  C2_3 
ROOT
ATOM      1  C2  UNL d   1       2.120   1.909   2.728  0.00  0.00    -0.077 A 
ATOM      2  C3  UNL d   1       2.794   2.726   1.810  0.00  0.00     0.002 A 
ATOM      3  C4  UNL d   1       3.750   3.644   2.250  0.00  0.00     0.002 A 
ATOM      4  C5  UNL d   1       4.042   3.750   3.608  0.00  0.00    -0.004 A 
ATOM      5  C6  UNL d   1       3.376   2.943   4.529  0.00  0.00     0.002 A 
ATOM      6  C7  UNL d   1       2.420   2.026   4.091  0.00  0.00     0.002 A 
ENDROOT
BRANCH   1   7
ATOM      7  C1  UNL d   1       1.125   0.883   2.250  0.00  0.00     0.055 C 
ATOM      8  C   UNL d   1       1.811  -0.422   1.875  0.00  0.00     0.019 C 
ENDBRANCH   1   7
TORSDOF 1
ENDMDL
