MODEL 1
REMARK minimizedAffinity 7.11155891
REMARK minimizedRMSD -1
REMARK  1 active torsions:
REMARK  status: ('A' for Active; 'I' for Inactive)
REMARK    1  A    between atoms: C1_2  and  C2_3 
ROOT
ATOM      1  C2  UNL d   1      -2.204   1.136   1.652  0.00  0.00    -0.077 A 
ATOM      2  C3  UNL d   1      -2.150  -0.228   1.971  0.00  0.00     0.002 A 
ATOM      3  C4  UNL d   1      -3.299  -1.018   1.893  0.00  0.00     0.002 A 
ATOM      4  C5  UNL d   1      -4.508  -0.453   1.492  0.00  0.00    -0.004 A 
ATOM      5  C6  UNL d   1      -4.573   0.903   1.174  0.00  0.00     0.002 A 
ATOM      6  C7  UNL d   1      -3.426   1.694   1.253  0.00  0.00     0.002 A 
ENDROOT
BRANCH   1   7
ATOM      7  C1  UNL d   1      -0.956   1.978   1.688  0.00  0.00     0.055 C 
ATOM      8  C   UNL d   1       0.221   1.200   2.257  0.00  0.00     0.019 C 
ENDBRANCH   1   7
TORSDOF 1
ENDMDL
