MODEL 1
REMARK minimizedAffinity 5.13166285
REMARK minimizedRMSD -1
REMARK  1 active torsions:
REMARK  status: ('A' for Active; 'I' for Inactive)
REMARK    1  A    between atoms: C1_2  and  C2_3 
ROOT
ATOM      1  C2  UNL d   1      -0.589   4.662  -5.356  0.00  0.00    -0.077 A 
ATOM      2  C3  UNL d   1      -0.479   4.065  -4.092  0.00  0.00     0.002 A 
ATOM      3  C4  UNL d   1       0.768   3.939  -3.477  0.00  0.00     0.002 A 
ATOM      4  C5  UNL d   1       1.913   4.410  -4.116  0.00  0.00    -0.004 A 
ATOM      5  C6  UNL d   1       1.814   5.003  -5.374  0.00  0.00     0.002 A 
ATOM      6  C7  UNL d   1       0.569   5.130  -5.991  0.00  0.00     0.002 A 
ENDROOT
BRANCH   1   7
ATOM      7  C1  UNL d   1      -1.939   4.843  -6.000  0.00  0.00     0.055 C 
ATOM      8  C   UNL d   1      -2.701   6.000  -5.369  0.00  0.00     0.019 C 
ENDBRANCH   1   7
TORSDOF 1
ENDMDL
