MODEL 1
REMARK minimizedAffinity 9.03056431
REMARK minimizedRMSD -1
REMARK  1 active torsions:
REMARK  status: ('A' for Active; 'I' for Inactive)
REMARK    1  A    between atoms: C1_2  and  C2_3 
ROOT
ATOM      1  C2  UNL d   1       1.962  -4.741  -3.049  0.00  0.00    -0.077 A 
ATOM      2  C3  UNL d   1       2.713  -4.393  -1.917  0.00  0.00     0.002 A 
ATOM      3  C4  UNL d   1       2.325  -3.318  -1.115  0.00  0.00     0.002 A 
ATOM      4  C5  UNL d   1       1.183  -2.586  -1.434  0.00  0.00    -0.004 A 
ATOM      5  C6  UNL d   1       0.431  -2.923  -2.558  0.00  0.00     0.002 A 
ATOM      6  C7  UNL d   1       0.818  -3.996  -3.362  0.00  0.00     0.002 A 
ENDROOT
BRANCH   1   7
ATOM      7  C1  UNL d   1       2.351  -5.931  -3.887  0.00  0.00     0.055 C 
ATOM      8  C   UNL d   1       1.531  -5.998  -5.167  0.00  0.00     0.019 C 
ENDBRANCH   1   7
TORSDOF 1
ENDMDL
