MODEL 1
REMARK minimizedAffinity 8.41806126
REMARK minimizedRMSD -1
REMARK  1 active torsions:
REMARK  status: ('A' for Active; 'I' for Inactive)
REMARK    1  A    between atoms: C1_2  and  C2_3 
ROOT
ATOM      1  C2  UNL d   1      -2.607  -5.823   1.834  0.00  0.00    -0.077 A 
ATOM      2  C3  UNL d   1      -1.612  -5.529   2.776  0.00  0.00     0.002 A 
ATOM      3  C4  UNL d   1      -1.933  -5.414   4.130  0.00  0.00     0.002 A 
ATOM      4  C5  UNL d   1      -3.248  -5.594   4.554  0.00  0.00    -0.004 A 
ATOM      5  C6  UNL d   1      -4.245  -5.885   3.624  0.00  0.00     0.002 A 
ATOM      6  C7  UNL d   1      -3.926  -6.000   2.270  0.00  0.00     0.002 A 
ENDROOT
BRANCH   1   7
ATOM      7  C1  UNL d   1      -2.254  -5.997   0.380  0.00  0.00     0.055 C 
ATOM      8  C   UNL d   1      -1.962  -4.659  -0.283  0.00  0.00     0.019 C 
ENDBRANCH   1   7
TORSDOF 1
ENDMDL
