MODEL 1
REMARK minimizedAffinity -1.45016146
REMARK minimizedRMSD -1
REMARK  1 active torsions:
REMARK  status: ('A' for Active; 'I' for Inactive)
REMARK    1  A    between atoms: C1_2  and  C2_3 
ROOT
ATOM      1  C2  UNL d   1      -1.064   0.114   1.771  0.00  0.00    -0.077 A 
ATOM      2  C3  UNL d   1      -2.349   0.639   1.970  0.00  0.00     0.002 A 
ATOM      3  C4  UNL d   1      -3.385  -0.182   2.421  0.00  0.00     0.002 A 
ATOM      4  C5  UNL d   1      -3.146  -1.529   2.682  0.00  0.00    -0.004 A 
ATOM      5  C6  UNL d   1      -1.872  -2.061   2.486  0.00  0.00     0.002 A 
ATOM      6  C7  UNL d   1      -0.835  -1.243   2.034  0.00  0.00     0.002 A 
ENDROOT
BRANCH   1   7
ATOM      7  C1  UNL d   1       0.066   1.008   1.331  0.00  0.00     0.055 C 
ATOM      8  C   UNL d   1       0.390   2.052   2.389  0.00  0.00     0.019 C 
ENDBRANCH   1   7
TORSDOF 1
ENDMDL
