MODEL 1
REMARK minimizedAffinity 5.39785719
REMARK minimizedRMSD -1
REMARK  1 active torsions:
REMARK  status: ('A' for Active; 'I' for Inactive)
REMARK    1  A    between atoms: C1_2  and  C2_3 
ROOT
ATOM      1  C2  UNL d   1       4.923   3.447  -5.966  0.00  0.00    -0.077 A 
ATOM      2  C3  UNL d   1       5.706   4.609  -5.995  0.00  0.00     0.002 A 
ATOM      3  C4  UNL d   1       5.101   5.868  -5.994  0.00  0.00     0.002 A 
ATOM      4  C5  UNL d   1       3.713   5.976  -5.961  0.00  0.00    -0.004 A 
ATOM      5  C6  UNL d   1       2.925   4.826  -5.934  0.00  0.00     0.002 A 
ATOM      6  C7  UNL d   1       3.527   3.567  -5.935  0.00  0.00     0.002 A 
ENDROOT
BRANCH   1   7
ATOM      7  C1  UNL d   1       5.573   2.089  -5.916  0.00  0.00     0.055 C 
ATOM      8  C   UNL d   1       4.535   0.981  -5.822  0.00  0.00     0.019 C 
ENDBRANCH   1   7
TORSDOF 1
ENDMDL
