MODEL 1
REMARK minimizedAffinity 4.07479668
REMARK minimizedRMSD -1
REMARK  1 active torsions:
REMARK  status: ('A' for Active; 'I' for Inactive)
REMARK    1  A    between atoms: C1_2  and  C2_3 
ROOT
ATOM      1  C2  UNL d   1      -2.211  -0.901   2.092  0.00  0.00    -0.077 A 
ATOM      2  C3  UNL d   1      -3.434  -0.247   2.297  0.00  0.00     0.002 A 
ATOM      3  C4  UNL d   1      -4.432  -0.842   3.071  0.00  0.00     0.002 A 
ATOM      4  C5  UNL d   1      -4.216  -2.091   3.650  0.00  0.00    -0.004 A 
ATOM      5  C6  UNL d   1      -3.004  -2.750   3.451  0.00  0.00     0.002 A 
ATOM      6  C7  UNL d   1      -2.006  -2.158   2.676  0.00  0.00     0.002 A 
ENDROOT
BRANCH   1   7
ATOM      7  C1  UNL d   1      -1.115  -0.239   1.299  0.00  0.00     0.055 C 
ATOM      8  C   UNL d   1       0.164  -1.064   1.326  0.00  0.00     0.019 C 
ENDBRANCH   1   7
TORSDOF 1
ENDMDL
