MODEL 1
REMARK minimizedAffinity 1.26902473
REMARK minimizedRMSD -1
REMARK  1 active torsions:
REMARK  status: ('A' for Active; 'I' for Inactive)
REMARK    1  A    between atoms: C1_2  and  C2_3 
ROOT
ATOM      1  C2  UNL d   1      -3.717   4.981  -5.074  0.00  0.00    -0.077 A 
ATOM      2  C3  UNL d   1      -3.871   5.079  -3.684  0.00  0.00     0.002 A 
ATOM      3  C4  UNL d   1      -2.916   4.529  -2.827  0.00  0.00     0.002 A 
ATOM      4  C5  UNL d   1      -1.798   3.883  -3.350  0.00  0.00    -0.004 A 
ATOM      5  C6  UNL d   1      -1.636   3.779  -4.731  0.00  0.00     0.002 A 
ATOM      6  C7  UNL d   1      -2.591   4.326  -5.589  0.00  0.00     0.002 A 
ENDROOT
BRANCH   1   7
ATOM      7  C1  UNL d   1      -4.721   5.616  -6.000  0.00  0.00     0.055 C 
ATOM      8  C   UNL d   1      -6.000   5.984  -5.262  0.00  0.00     0.019 C 
ENDBRANCH   1   7
TORSDOF 1
ENDMDL
