MODEL 1
REMARK minimizedAffinity 8.96031189
REMARK minimizedRMSD -1
REMARK  1 active torsions:
REMARK  status: ('A' for Active; 'I' for Inactive)
REMARK    1  A    between atoms: C1_2  and  C2_3 
ROOT
ATOM      1  C2  UNL d   1       3.715   3.610   4.589  0.00  0.00    -0.077 A 
ATOM      2  C3  UNL d   1       3.513   4.864   5.181  0.00  0.00     0.002 A 
ATOM      3  C4  UNL d   1       4.547   5.489   5.881  0.00  0.00     0.002 A 
ATOM      4  C5  UNL d   1       5.790   4.869   5.992  0.00  0.00    -0.004 A 
ATOM      5  C6  UNL d   1       6.000   3.621   5.408  0.00  0.00     0.002 A 
ATOM      6  C7  UNL d   1       4.967   2.994   4.709  0.00  0.00     0.002 A 
ENDROOT
BRANCH   1   7
ATOM      7  C1  UNL d   1       2.616   2.956   3.792  0.00  0.00     0.055 C 
ATOM      8  C   UNL d   1       2.767   3.240   2.305  0.00  0.00     0.019 C 
ENDBRANCH   1   7
TORSDOF 1
ENDMDL
