MODEL 1
REMARK minimizedAffinity 5.94465113
REMARK minimizedRMSD -1
REMARK  1 active torsions:
REMARK  status: ('A' for Active; 'I' for Inactive)
REMARK    1  A    between atoms: C1_2  and  C2_3 
ROOT
ATOM      1  C2  UNL d   1      -4.176   0.285   2.696  0.00  0.00    -0.077 A 
ATOM      2  C3  UNL d   1      -5.004   0.930   1.767  0.00  0.00     0.002 A 
ATOM      3  C4  UNL d   1      -4.468   1.462   0.593  0.00  0.00     0.002 A 
ATOM      4  C5  UNL d   1      -3.103   1.350   0.335  0.00  0.00    -0.004 A 
ATOM      5  C6  UNL d   1      -2.271   0.711   1.253  0.00  0.00     0.002 A 
ATOM      6  C7  UNL d   1      -2.805   0.180   2.428  0.00  0.00     0.002 A 
ENDROOT
BRANCH   1   7
ATOM      7  C1  UNL d   1      -4.760  -0.333   3.940  0.00  0.00     0.055 C 
ATOM      8  C   UNL d   1      -4.426  -1.815   4.031  0.00  0.00     0.019 C 
ENDBRANCH   1   7
TORSDOF 1
ENDMDL
