MODEL 1
REMARK minimizedAffinity 10.1015167
REMARK minimizedRMSD -1
REMARK  1 active torsions:
REMARK  status: ('A' for Active; 'I' for Inactive)
REMARK    1  A    between atoms: C1_2  and  C2_3 
ROOT
ATOM      1  C2  UNL d   1       3.966   3.486   4.301  0.00  0.00    -0.077 A 
ATOM      2  C3  UNL d   1       3.958   4.819   4.736  0.00  0.00     0.002 A 
ATOM      3  C4  UNL d   1       4.962   5.291   5.584  0.00  0.00     0.002 A 
ATOM      4  C5  UNL d   1       5.983   4.439   6.000  0.00  0.00    -0.004 A 
ATOM      5  C6  UNL d   1       5.999   3.111   5.574  0.00  0.00     0.002 A 
ATOM      6  C7  UNL d   1       4.996   2.637   4.727  0.00  0.00     0.002 A 
ENDROOT
BRANCH   1   7
ATOM      7  C1  UNL d   1       2.912   2.988   3.347  0.00  0.00     0.055 C 
ATOM      8  C   UNL d   1       1.815   2.231   4.081  0.00  0.00     0.019 C 
ENDBRANCH   1   7
TORSDOF 1
ENDMDL
