MODEL 1
REMARK minimizedAffinity -0.750891566
REMARK minimizedRMSD -1
REMARK  1 active torsions:
REMARK  status: ('A' for Active; 'I' for Inactive)
REMARK    1  A    between atoms: C1_2  and  C2_3 
ROOT
ATOM      1  C2  UNL d   1       3.666   3.720  -5.290  0.00  0.00    -0.077 A 
ATOM      2  C3  UNL d   1       4.830   3.024  -5.645  0.00  0.00     0.002 A 
ATOM      3  C4  UNL d   1       5.988   3.719  -6.000  0.00  0.00     0.002 A 
ATOM      4  C5  UNL d   1       5.994   5.112  -6.000  0.00  0.00    -0.004 A 
ATOM      5  C6  UNL d   1       4.840   5.813  -5.651  0.00  0.00     0.002 A 
ATOM      6  C7  UNL d   1       3.682   5.120  -5.297  0.00  0.00     0.002 A 
ENDROOT
BRANCH   1   7
ATOM      7  C1  UNL d   1       2.431   2.972  -4.860  0.00  0.00     0.055 C 
ATOM      8  C   UNL d   1       1.902   3.496  -3.533  0.00  0.00     0.019 C 
ENDBRANCH   1   7
TORSDOF 1
ENDMDL
