MODEL 1
REMARK minimizedAffinity -4.19659281
REMARK minimizedRMSD -1
REMARK  0 active torsions:
REMARK  status: ('A' for Active; 'I' for Inactive)
ROOT
ATOM      1  C   UNL d   1      -0.666   1.149   4.069  0.00  0.00     0.077 C 
ATOM      2  C1  UNL d   1      -1.044   0.683   2.694  0.00  0.00    -0.074 A 
ATOM      3  C2  UNL d   1      -2.312   0.950   2.168  0.00  0.00    -0.005 A 
ATOM      4  C3  UNL d   1      -2.645   0.519   0.884  0.00  0.00     0.006 A 
ATOM      5  C4  UNL d   1      -1.716  -0.183   0.115  0.00  0.00    -0.005 A 
ATOM      6  C5  UNL d   1      -0.443  -0.458   0.624  0.00  0.00    -0.074 A 
ATOM      7  C6  UNL d   1       0.570  -1.203  -0.193  0.00  0.00     0.077 C 
ATOM      8  C7  UNL d   1      -0.113  -0.015   1.912  0.00  0.00    -0.001 A 
ENDROOT
TORSDOF 0
ENDMDL
