MODEL 1
REMARK minimizedAffinity -5.08608246
REMARK minimizedRMSD -1
REMARK  0 active torsions:
REMARK  status: ('A' for Active; 'I' for Inactive)
ROOT
ATOM      1  C   UNL d   1      -3.448  -0.947   2.894  0.00  0.00     0.077 C 
ATOM      2  C1  UNL d   1      -2.326  -0.038   2.492  0.00  0.00    -0.074 A 
ATOM      3  C2  UNL d   1      -1.963   1.052   3.291  0.00  0.00    -0.005 A 
ATOM      4  C3  UNL d   1      -0.910   1.884   2.909  0.00  0.00     0.006 A 
ATOM      5  C4  UNL d   1      -0.211   1.635   1.727  0.00  0.00    -0.005 A 
ATOM      6  C5  UNL d   1      -0.559   0.550   0.916  0.00  0.00    -0.074 A 
ATOM      7  C6  UNL d   1       0.188   0.263  -0.352  0.00  0.00     0.077 C 
ATOM      8  C7  UNL d   1      -1.614  -0.285   1.310  0.00  0.00    -0.001 A 
ENDROOT
TORSDOF 0
ENDMDL
