MODEL 1
REMARK minimizedAffinity -4.06970215
REMARK minimizedRMSD -1
REMARK  0 active torsions:
REMARK  status: ('A' for Active; 'I' for Inactive)
ROOT
ATOM      1  C   UNL d   1       1.446   1.372  -3.157  0.00  0.00     0.077 C 
ATOM      2  C1  UNL d   1       1.100   0.418  -2.053  0.00  0.00    -0.074 A 
ATOM      3  C2  UNL d   1       1.751  -0.815  -1.939  0.00  0.00    -0.005 A 
ATOM      4  C3  UNL d   1       1.425  -1.688  -0.901  0.00  0.00     0.006 A 
ATOM      5  C4  UNL d   1       0.448  -1.338   0.032  0.00  0.00    -0.005 A 
ATOM      6  C5  UNL d   1      -0.212  -0.109  -0.066  0.00  0.00    -0.074 A 
ATOM      7  C6  UNL d   1      -1.257   0.287   0.934  0.00  0.00     0.077 C 
ATOM      8  C7  UNL d   1       0.125   0.766  -1.108  0.00  0.00    -0.001 A 
ENDROOT
TORSDOF 0
ENDMDL
