MODEL 1
REMARK minimizedAffinity -5.15975523
REMARK minimizedRMSD -1
REMARK  0 active torsions:
REMARK  status: ('A' for Active; 'I' for Inactive)
ROOT
ATOM      1  C   UNL d   1       1.698   1.556  -2.781  0.00  0.00     0.077 C 
ATOM      2  C1  UNL d   1       1.265   0.569  -1.739  0.00  0.00    -0.074 A 
ATOM      3  C2  UNL d   1       1.965  -0.626  -1.546  0.00  0.00    -0.005 A 
ATOM      4  C3  UNL d   1       1.557  -1.531  -0.566  0.00  0.00     0.006 A 
ATOM      5  C4  UNL d   1       0.445  -1.250   0.230  0.00  0.00    -0.005 A 
ATOM      6  C5  UNL d   1      -0.267  -0.060   0.052  0.00  0.00    -0.074 A 
ATOM      7  C6  UNL d   1      -1.459   0.261   0.905  0.00  0.00     0.077 C 
ATOM      8  C7  UNL d   1       0.154   0.847  -0.930  0.00  0.00    -0.001 A 
ENDROOT
TORSDOF 0
ENDMDL
