MODEL 1
REMARK minimizedAffinity -2.50649381
REMARK minimizedRMSD -1
REMARK  0 active torsions:
REMARK  status: ('A' for Active; 'I' for Inactive)
ROOT
ATOM      1  C   UNL d   1      -0.734   0.780  -0.719  0.00  0.00     0.077 C 
ATOM      2  C1  UNL d   1      -0.757   1.129   0.739  0.00  0.00    -0.074 A 
ATOM      3  C2  UNL d   1      -0.091   2.261   1.218  0.00  0.00    -0.005 A 
ATOM      4  C3  UNL d   1      -0.128   2.578   2.576  0.00  0.00     0.006 A 
ATOM      5  C4  UNL d   1      -0.832   1.767   3.467  0.00  0.00    -0.005 A 
ATOM      6  C5  UNL d   1      -1.505   0.631   3.007  0.00  0.00    -0.074 A 
ATOM      7  C6  UNL d   1      -2.274  -0.246   3.950  0.00  0.00     0.077 C 
ATOM      8  C7  UNL d   1      -1.468   0.323   1.640  0.00  0.00    -0.001 A 
ENDROOT
TORSDOF 0
ENDMDL
