MODEL 1
REMARK minimizedAffinity -3.22901511
REMARK minimizedRMSD -1
REMARK  0 active torsions:
REMARK  status: ('A' for Active; 'I' for Inactive)
ROOT
ATOM      1  C   UNL d   1       2.803  -1.103  -1.179  0.00  0.00     0.077 C 
ATOM      2  C1  UNL d   1       1.459  -0.707  -0.644  0.00  0.00    -0.074 A 
ATOM      3  C2  UNL d   1       0.812  -1.485   0.321  0.00  0.00    -0.005 A 
ATOM      4  C3  UNL d   1      -0.434  -1.099   0.817  0.00  0.00     0.006 A 
ATOM      5  C4  UNL d   1      -1.044   0.067   0.352  0.00  0.00    -0.005 A 
ATOM      6  C5  UNL d   1      -0.411   0.858  -0.612  0.00  0.00    -0.074 A 
ATOM      7  C6  UNL d   1      -1.049   2.119  -1.115  0.00  0.00     0.077 C 
ATOM      8  C7  UNL d   1       0.843   0.467  -1.100  0.00  0.00    -0.001 A 
ENDROOT
TORSDOF 0
ENDMDL
