MODEL 1
REMARK minimizedAffinity -2.085783
REMARK minimizedRMSD -1
REMARK  0 active torsions:
REMARK  status: ('A' for Active; 'I' for Inactive)
ROOT
ATOM      1  C   UNL d   1       1.361   0.454  -2.934  0.00  0.00     0.077 C 
ATOM      2  C1  UNL d   1       1.034  -0.207  -1.629  0.00  0.00    -0.074 A 
ATOM      3  C2  UNL d   1       1.498  -1.495  -1.339  0.00  0.00    -0.005 A 
ATOM      4  C3  UNL d   1       1.193  -2.094  -0.117  0.00  0.00     0.006 A 
ATOM      5  C4  UNL d   1       0.423  -1.413   0.827  0.00  0.00    -0.005 A 
ATOM      6  C5  UNL d   1      -0.049  -0.124   0.555  0.00  0.00    -0.074 A 
ATOM      7  C6  UNL d   1      -0.869   0.625   1.562  0.00  0.00     0.077 C 
ATOM      8  C7  UNL d   1       0.267   0.473  -0.673  0.00  0.00    -0.001 A 
ENDROOT
TORSDOF 0
ENDMDL
