MODEL 1
REMARK minimizedAffinity 0.401111007
REMARK minimizedRMSD -1
REMARK  0 active torsions:
REMARK  status: ('A' for Active; 'I' for Inactive)
ROOT
ATOM      1  C   UNL d   1       0.944  -1.958   0.289  0.00  0.00     0.077 C 
ATOM      2  C1  UNL d   1      -0.035  -0.827   0.405  0.00  0.00    -0.074 A 
ATOM      3  C2  UNL d   1      -0.740  -0.369  -0.713  0.00  0.00    -0.005 A 
ATOM      4  C3  UNL d   1      -1.654   0.677  -0.588  0.00  0.00     0.006 A 
ATOM      5  C4  UNL d   1      -1.872   1.274   0.654  0.00  0.00    -0.005 A 
ATOM      6  C5  UNL d   1      -1.177   0.829   1.783  0.00  0.00    -0.074 A 
ATOM      7  C6  UNL d   1      -1.407   1.454   3.127  0.00  0.00     0.077 C 
ATOM      8  C7  UNL d   1      -0.265  -0.227   1.650  0.00  0.00    -0.001 A 
ENDROOT
TORSDOF 0
ENDMDL
