MODEL 1
REMARK minimizedAffinity -4.04524803
REMARK minimizedRMSD -1
REMARK  0 active torsions:
REMARK  status: ('A' for Active; 'I' for Inactive)
ROOT
ATOM      1  C   UNL d   1      -0.068  -0.712   0.217  0.00  0.00     0.077 C 
ATOM      2  C1  UNL d   1      -0.700   0.009   1.370  0.00  0.00    -0.074 A 
ATOM      3  C2  UNL d   1      -0.333  -0.281   2.688  0.00  0.00    -0.005 A 
ATOM      4  C3  UNL d   1      -0.923   0.406   3.749  0.00  0.00     0.006 A 
ATOM      5  C4  UNL d   1      -1.884   1.387   3.504  0.00  0.00    -0.005 A 
ATOM      6  C5  UNL d   1      -2.263   1.691   2.193  0.00  0.00    -0.074 A 
ATOM      7  C6  UNL d   1      -3.287   2.750   1.911  0.00  0.00     0.077 C 
ATOM      8  C7  UNL d   1      -1.660   1.002   1.131  0.00  0.00    -0.001 A 
ENDROOT
TORSDOF 0
ENDMDL
