MODEL 1
REMARK minimizedAffinity 0.120799936
REMARK minimizedRMSD -1
REMARK  0 active torsions:
REMARK  status: ('A' for Active; 'I' for Inactive)
ROOT
ATOM      1  C   UNL d   1       1.636   0.770  -4.253  0.00  0.00     0.077 C 
ATOM      2  C1  UNL d   1       1.493   0.146  -2.897  0.00  0.00    -0.074 A 
ATOM      3  C2  UNL d   1       2.039  -1.112  -2.623  0.00  0.00    -0.005 A 
ATOM      4  C3  UNL d   1       1.906  -1.675  -1.353  0.00  0.00     0.006 A 
ATOM      5  C4  UNL d   1       1.226  -0.987  -0.347  0.00  0.00    -0.005 A 
ATOM      6  C5  UNL d   1       0.674   0.272  -0.603  0.00  0.00    -0.074 A 
ATOM      7  C6  UNL d   1      -0.052   1.029   0.470  0.00  0.00     0.077 C 
ATOM      8  C7  UNL d   1       0.818   0.834  -1.879  0.00  0.00    -0.001 A 
ENDROOT
TORSDOF 0
ENDMDL
