MODEL 1
REMARK minimizedAffinity -1.68247247
REMARK minimizedRMSD -1
REMARK  0 active torsions:
REMARK  status: ('A' for Active; 'I' for Inactive)
ROOT
ATOM      1  C   UNL d   1      -0.526   1.856   4.205  0.00  0.00     0.077 C 
ATOM      2  C1  UNL d   1      -1.177   1.157   3.049  0.00  0.00    -0.074 A 
ATOM      3  C2  UNL d   1      -2.423   0.537   3.193  0.00  0.00    -0.005 A 
ATOM      4  C3  UNL d   1      -3.020  -0.101   2.106  0.00  0.00     0.006 A 
ATOM      5  C4  UNL d   1      -2.379  -0.126   0.867  0.00  0.00    -0.005 A 
ATOM      6  C5  UNL d   1      -1.134   0.489   0.704  0.00  0.00    -0.074 A 
ATOM      7  C6  UNL d   1      -0.436   0.480  -0.624  0.00  0.00     0.077 C 
ATOM      8  C7  UNL d   1      -0.543   1.134   1.799  0.00  0.00    -0.001 A 
ENDROOT
TORSDOF 0
ENDMDL
