MODEL 1
REMARK minimizedAffinity -5.33461952
REMARK minimizedRMSD -1
REMARK  0 active torsions:
REMARK  status: ('A' for Active; 'I' for Inactive)
ROOT
ATOM      1  C   UNL d   1      -1.469  -0.190   1.332  0.00  0.00     0.077 C 
ATOM      2  C1  UNL d   1      -0.350  -0.395   0.355  0.00  0.00    -0.074 A 
ATOM      3  C2  UNL d   1       0.410  -1.569   0.370  0.00  0.00    -0.005 A 
ATOM      4  C3  UNL d   1       1.442  -1.750  -0.551  0.00  0.00     0.006 A 
ATOM      5  C4  UNL d   1       1.723  -0.761  -1.494  0.00  0.00    -0.005 A 
ATOM      6  C5  UNL d   1       0.973   0.419  -1.524  0.00  0.00    -0.074 A 
ATOM      7  C6  UNL d   1       1.256   1.488  -2.538  0.00  0.00     0.077 C 
ATOM      8  C7  UNL d   1      -0.066   0.591  -0.600  0.00  0.00    -0.001 A 
ENDROOT
TORSDOF 0
ENDMDL
