MODEL 1
REMARK minimizedAffinity 0.696784139
REMARK minimizedRMSD -1
REMARK  0 active torsions:
REMARK  status: ('A' for Active; 'I' for Inactive)
ROOT
ATOM      1  C   UNL d   1       0.551  -0.663   0.006  0.00  0.00     0.077 C 
ATOM      2  C1  UNL d   1      -0.534   0.031   0.776  0.00  0.00    -0.074 A 
ATOM      3  C2  UNL d   1      -1.587   0.672   0.115  0.00  0.00    -0.005 A 
ATOM      4  C3  UNL d   1      -2.593   1.305   0.844  0.00  0.00     0.006 A 
ATOM      5  C4  UNL d   1      -2.558   1.303   2.239  0.00  0.00    -0.005 A 
ATOM      6  C5  UNL d   1      -1.514   0.666   2.917  0.00  0.00    -0.074 A 
ATOM      7  C6  UNL d   1      -1.466   0.645   4.416  0.00  0.00     0.077 C 
ATOM      8  C7  UNL d   1      -0.510   0.026   2.177  0.00  0.00    -0.001 A 
ENDROOT
TORSDOF 0
ENDMDL
