MODEL 1
REMARK minimizedAffinity -2.6689024
REMARK minimizedRMSD -1
REMARK  0 active torsions:
REMARK  status: ('A' for Active; 'I' for Inactive)
ROOT
ATOM      1  C   UNL d   1      -1.836  -0.026   1.345  0.00  0.00     0.077 C 
ATOM      2  C1  UNL d   1      -0.625   0.152   0.479  0.00  0.00    -0.074 A 
ATOM      3  C2  UNL d   1      -0.248   1.419   0.022  0.00  0.00    -0.005 A 
ATOM      4  C3  UNL d   1       0.886   1.571  -0.775  0.00  0.00     0.006 A 
ATOM      5  C4  UNL d   1       1.654   0.459  -1.123  0.00  0.00    -0.005 A 
ATOM      6  C5  UNL d   1       1.294  -0.815  -0.675  0.00  0.00    -0.074 A 
ATOM      7  C6  UNL d   1       2.114  -2.020  -1.032  0.00  0.00     0.077 C 
ATOM      8  C7  UNL d   1       0.156  -0.959   0.131  0.00  0.00    -0.001 A 
ENDROOT
TORSDOF 0
ENDMDL
