MODEL 1
REMARK minimizedAffinity 12.8910217
REMARK minimizedRMSD -1
REMARK  1 active torsions:
REMARK  status: ('A' for Active; 'I' for Inactive)
REMARK    1  A    between atoms: C1_2  and  C2_3 
ROOT
ATOM      1  C2  UNL d   1      -1.040  -4.356   1.542  0.00  0.00    -0.073 A 
ATOM      2  C3  UNL d   1      -1.691  -3.529   2.463  0.00  0.00    -0.002 A 
ATOM      3  C4  UNL d   1      -2.259  -2.323   2.050  0.00  0.00     0.004 A 
ATOM      4  C5  UNL d   1      -2.188  -1.936   0.711  0.00  0.00    -0.004 A 
ATOM      5  C6  UNL d   1      -1.552  -2.755  -0.227  0.00  0.00    -0.075 A 
ATOM      6  C7  UNL d   1      -1.465  -2.353  -1.670  0.00  0.00     0.076 C 
ATOM      7  C8  UNL d   1      -0.982  -3.963   0.197  0.00  0.00     0.001 A 
ENDROOT
BRANCH   1   8
ATOM      8  C1  UNL d   1      -0.431  -5.662   1.983  0.00  0.00     0.053 C 
ATOM      9  C   UNL d   1      -0.786  -6.000   3.422  0.00  0.00     0.018 C 
ENDBRANCH   1   8
TORSDOF 1
ENDMDL
