MODEL 1
REMARK minimizedAffinity 3.38566399
REMARK minimizedRMSD -1
REMARK  1 active torsions:
REMARK  status: ('A' for Active; 'I' for Inactive)
REMARK    1  A    between atoms: C1_2  and  C2_3 
ROOT
ATOM      1  C2  UNL d   1      -1.488  -3.534   2.699  0.00  0.00    -0.073 A 
ATOM      2  C3  UNL d   1      -0.847  -4.742   2.398  0.00  0.00    -0.002 A 
ATOM      3  C4  UNL d   1      -0.363  -4.981   1.111  0.00  0.00     0.004 A 
ATOM      4  C5  UNL d   1      -0.508  -4.016   0.115  0.00  0.00    -0.004 A 
ATOM      5  C6  UNL d   1      -1.135  -2.798   0.399  0.00  0.00    -0.075 A 
ATOM      6  C7  UNL d   1      -1.301  -1.750  -0.661  0.00  0.00     0.076 C 
ATOM      7  C8  UNL d   1      -1.621  -2.566   1.693  0.00  0.00     0.001 A 
ENDROOT
BRANCH   1   8
ATOM      8  C1  UNL d   1      -2.007  -3.268   4.088  0.00  0.00     0.053 C 
ATOM      9  C   UNL d   1      -1.881  -1.803   4.472  0.00  0.00     0.018 C 
ENDBRANCH   1   8
TORSDOF 1
ENDMDL
