MODEL 1
REMARK minimizedAffinity 17.4726295
REMARK minimizedRMSD -1
REMARK  1 active torsions:
REMARK  status: ('A' for Active; 'I' for Inactive)
REMARK    1  A    between atoms: C1_2  and  C2_3 
ROOT
ATOM      1  C2  UNL d   1      -1.859  -3.526   1.461  0.00  0.00    -0.073 A 
ATOM      2  C3  UNL d   1      -1.112  -4.123   0.439  0.00  0.00    -0.002 A 
ATOM      3  C4  UNL d   1      -0.427  -5.316   0.671  0.00  0.00     0.004 A 
ATOM      4  C5  UNL d   1      -0.487  -5.929   1.922  0.00  0.00    -0.004 A 
ATOM      5  C6  UNL d   1      -1.238  -5.354   2.953  0.00  0.00    -0.075 A 
ATOM      6  C7  UNL d   1      -1.311  -5.999   4.306  0.00  0.00     0.076 C 
ATOM      7  C8  UNL d   1      -1.921  -4.154   2.714  0.00  0.00     0.001 A 
ENDROOT
BRANCH   1   8
ATOM      8  C1  UNL d   1      -2.605  -2.241   1.214  0.00  0.00     0.053 C 
ATOM      9  C   UNL d   1      -2.165  -1.565  -0.074  0.00  0.00     0.018 C 
ENDBRANCH   1   8
TORSDOF 1
ENDMDL
