MODEL 1
REMARK minimizedAffinity 6.3803215
REMARK minimizedRMSD -1
REMARK  1 active torsions:
REMARK  status: ('A' for Active; 'I' for Inactive)
REMARK    1  A    between atoms: C1_2  and  C2_3 
ROOT
ATOM      1  C2  UNL d   1      -1.142  -4.381   1.429  0.00  0.00    -0.073 A 
ATOM      2  C3  UNL d   1      -1.563  -4.156   2.744  0.00  0.00    -0.002 A 
ATOM      3  C4  UNL d   1      -2.172  -2.950   3.094  0.00  0.00     0.004 A 
ATOM      4  C5  UNL d   1      -2.373  -1.961   2.131  0.00  0.00    -0.004 A 
ATOM      5  C6  UNL d   1      -1.971  -2.172   0.808  0.00  0.00    -0.075 A 
ATOM      6  C7  UNL d   1      -2.178  -1.117  -0.238  0.00  0.00     0.076 C 
ATOM      7  C8  UNL d   1      -1.357  -3.384   0.466  0.00  0.00     0.001 A 
ENDROOT
BRANCH   1   8
ATOM      8  C1  UNL d   1      -0.490  -5.684   1.046  0.00  0.00     0.053 C 
ATOM      9  C   UNL d   1      -0.652  -5.989  -0.435  0.00  0.00     0.018 C 
ENDBRANCH   1   8
TORSDOF 1
ENDMDL
