MODEL 1
REMARK minimizedAffinity 13.1523256
REMARK minimizedRMSD -1
REMARK  1 active torsions:
REMARK  status: ('A' for Active; 'I' for Inactive)
REMARK    1  A    between atoms: C1_2  and  C2_3 
ROOT
ATOM      1  C2  UNL d   1      -1.093  -3.546   0.946  0.00  0.00    -0.073 A 
ATOM      2  C3  UNL d   1      -2.085  -2.870   1.665  0.00  0.00    -0.002 A 
ATOM      3  C4  UNL d   1      -2.651  -1.700   1.156  0.00  0.00     0.004 A 
ATOM      4  C5  UNL d   1      -2.235  -1.199  -0.078  0.00  0.00    -0.004 A 
ATOM      5  C6  UNL d   1      -1.253  -1.867  -0.816  0.00  0.00    -0.075 A 
ATOM      6  C7  UNL d   1      -0.794  -1.339  -2.144  0.00  0.00     0.076 C 
ATOM      7  C8  UNL d   1      -0.689  -3.040  -0.297  0.00  0.00     0.001 A 
ENDROOT
BRANCH   1   8
ATOM      8  C1  UNL d   1      -0.484  -4.814   1.488  0.00  0.00     0.053 C 
ATOM      9  C   UNL d   1      -0.711  -5.997   0.561  0.00  0.00     0.018 C 
ENDBRANCH   1   8
TORSDOF 1
ENDMDL
