MODEL 1
REMARK minimizedAffinity 8.78781128
REMARK minimizedRMSD -1
REMARK  1 active torsions:
REMARK  status: ('A' for Active; 'I' for Inactive)
REMARK    1  A    between atoms: C1_2  and  C2_3 
ROOT
ATOM      1  C2  UNL d   1      -0.686  -2.325  -0.941  0.00  0.00    -0.073 A 
ATOM      2  C3  UNL d   1      -1.673  -1.655  -0.209  0.00  0.00    -0.002 A 
ATOM      3  C4  UNL d   1      -2.214  -2.234   0.940  0.00  0.00     0.004 A 
ATOM      4  C5  UNL d   1      -1.770  -3.483   1.372  0.00  0.00    -0.004 A 
ATOM      5  C6  UNL d   1      -0.776  -4.163   0.661  0.00  0.00    -0.075 A 
ATOM      6  C7  UNL d   1      -0.288  -5.509   1.112  0.00  0.00     0.076 C 
ATOM      7  C8  UNL d   1      -0.239  -3.577  -0.493  0.00  0.00     0.001 A 
ENDROOT
BRANCH   1   8
ATOM      8  C1  UNL d   1      -0.094  -1.702  -2.178  0.00  0.00     0.053 C 
ATOM      9  C   UNL d   1      -0.877  -2.065  -3.430  0.00  0.00     0.018 C 
ENDBRANCH   1   8
TORSDOF 1
ENDMDL
