MODEL 1
REMARK minimizedAffinity 15.0852299
REMARK minimizedRMSD -1
REMARK  1 active torsions:
REMARK  status: ('A' for Active; 'I' for Inactive)
REMARK    1  A    between atoms: C1_2  and  C2_3 
ROOT
ATOM      1  C2  UNL d   1       1.374  -0.321  -2.052  0.00  0.00    -0.073 A 
ATOM      2  C3  UNL d   1       1.181  -0.748  -3.371  0.00  0.00    -0.002 A 
ATOM      3  C4  UNL d   1       0.033  -1.461  -3.720  0.00  0.00     0.004 A 
ATOM      4  C5  UNL d   1      -0.934  -1.749  -2.758  0.00  0.00    -0.004 A 
ATOM      5  C6  UNL d   1      -0.765  -1.321  -1.437  0.00  0.00    -0.075 A 
ATOM      6  C7  UNL d   1      -1.796  -1.624  -0.390  0.00  0.00     0.076 C 
ATOM      7  C8  UNL d   1       0.391  -0.607  -1.094  0.00  0.00     0.001 A 
ENDROOT
BRANCH   1   8
ATOM      8  C1  UNL d   1       2.608   0.455  -1.671  0.00  0.00     0.053 C 
ATOM      9  C   UNL d   1       2.271   1.713  -0.886  0.00  0.00     0.018 C 
ENDBRANCH   1   8
TORSDOF 1
ENDMDL
