MODEL 1
REMARK minimizedAffinity 10.0345478
REMARK minimizedRMSD -1
REMARK  1 active torsions:
REMARK  status: ('A' for Active; 'I' for Inactive)
REMARK    1  A    between atoms: C1_2  and  C2_3 
ROOT
ATOM      1  C2  UNL d   1      -0.854  -3.829  -0.196  0.00  0.00    -0.073 A 
ATOM      2  C3  UNL d   1      -1.225  -2.746   0.610  0.00  0.00    -0.002 A 
ATOM      3  C4  UNL d   1      -1.548  -1.517   0.034  0.00  0.00     0.004 A 
ATOM      4  C5  UNL d   1      -1.511  -1.359  -1.351  0.00  0.00    -0.004 A 
ATOM      5  C6  UNL d   1      -1.155  -2.433  -2.174  0.00  0.00    -0.075 A 
ATOM      6  C7  UNL d   1      -1.108  -2.279  -3.666  0.00  0.00     0.076 C 
ATOM      7  C8  UNL d   1      -0.829  -3.663  -1.588  0.00  0.00     0.001 A 
ENDROOT
BRANCH   1   8
ATOM      8  C1  UNL d   1      -0.511  -5.160   0.421  0.00  0.00     0.053 C 
ATOM      9  C   UNL d   1       0.002  -5.013   1.845  0.00  0.00     0.018 C 
ENDBRANCH   1   8
TORSDOF 1
ENDMDL
