MODEL 1
REMARK minimizedAffinity 23.7255497
REMARK minimizedRMSD -1
REMARK  1 active torsions:
REMARK  status: ('A' for Active; 'I' for Inactive)
REMARK    1  A    between atoms: C1_2  and  C2_3 
ROOT
ATOM      1  C2  UNL d   1      -4.267   3.953   1.280  0.00  0.00    -0.073 A 
ATOM      2  C3  UNL d   1      -4.746   4.894   0.361  0.00  0.00    -0.002 A 
ATOM      3  C4  UNL d   1      -5.607   5.910   0.777  0.00  0.00     0.004 A 
ATOM      4  C5  UNL d   1      -5.992   6.000   2.115  0.00  0.00    -0.004 A 
ATOM      5  C6  UNL d   1      -5.515   5.076   3.050  0.00  0.00    -0.075 A 
ATOM      6  C7  UNL d   1      -5.922   5.157   4.492  0.00  0.00     0.076 C 
ATOM      7  C8  UNL d   1      -4.653   4.056   2.624  0.00  0.00     0.001 A 
ENDROOT
BRANCH   1   8
ATOM      8  C1  UNL d   1      -3.331   2.857   0.836  0.00  0.00     0.053 C 
ATOM      9  C   UNL d   1      -2.138   2.715   1.768  0.00  0.00     0.018 C 
ENDBRANCH   1   8
TORSDOF 1
ENDMDL
