MODEL 1
REMARK minimizedAffinity -4.11682701
REMARK minimizedRMSD -1
REMARK  1 active torsions:
REMARK  status: ('A' for Active; 'I' for Inactive)
REMARK    1  A    between atoms: C3_4  and  O_7 
ROOT
ATOM      1  C   UNL d   1      -0.255   0.170   1.359  0.00  0.00    -0.033 A 
ATOM      2  C1  UNL d   1       1.083   0.559   1.435  0.00  0.00     0.039 A 
ATOM      3  C2  UNL d   1       1.750   1.001   0.291  0.00  0.00    -0.080 A 
ATOM      4  C3  UNL d   1       1.068   1.050  -0.921  0.00  0.00     0.150 A 
ATOM      5  C4  UNL d   1      -0.267   0.668  -1.004  0.00  0.00    -0.007 A 
ATOM      6  C5  UNL d   1      -0.931   0.226   0.140  0.00  0.00     0.039 A 
ENDROOT
BRANCH   4   7
ATOM      7  O   UNL d   1       1.678   1.470  -2.066  0.00  0.00    -0.526 OA
ATOM      8  H5  UNL d   1       2.606   1.674  -1.863  0.00  0.00     0.418 HD
ENDBRANCH   4   7
TORSDOF 1
ENDMDL
