MODEL 1
REMARK minimizedAffinity -4.3134675
REMARK minimizedRMSD -1
REMARK  1 active torsions:
REMARK  status: ('A' for Active; 'I' for Inactive)
REMARK    1  A    between atoms: C3_4  and  O_7 
ROOT
ATOM      1  C   UNL d   1       0.291  -0.052  -0.719  0.00  0.00    -0.033 A 
ATOM      2  C1  UNL d   1       1.273   0.804  -0.215  0.00  0.00     0.039 A 
ATOM      3  C2  UNL d   1       1.312   1.098   1.149  0.00  0.00    -0.080 A 
ATOM      4  C3  UNL d   1       0.365   0.530   1.998  0.00  0.00     0.150 A 
ATOM      5  C4  UNL d   1      -0.613  -0.326   1.503  0.00  0.00    -0.007 A 
ATOM      6  C5  UNL d   1      -0.651  -0.618   0.140  0.00  0.00     0.039 A 
ENDROOT
BRANCH   4   7
ATOM      7  O   UNL d   1       0.359   0.792   3.336  0.00  0.00    -0.526 OA
ATOM      8  H5  UNL d   1       1.074   1.421   3.529  0.00  0.00     0.418 HD
ENDBRANCH   4   7
TORSDOF 1
ENDMDL
