MODEL 1
REMARK minimizedAffinity -3.42494106
REMARK minimizedRMSD -1
REMARK  1 active torsions:
REMARK  status: ('A' for Active; 'I' for Inactive)
REMARK    1  A    between atoms: C3_4  and  O_7 
ROOT
ATOM      1  C   UNL d   1       1.742   0.342  -1.040  0.00  0.00    -0.033 A 
ATOM      2  C1  UNL d   1       0.942  -0.680  -0.526  0.00  0.00     0.039 A 
ATOM      3  C2  UNL d   1       0.645  -1.797  -1.310  0.00  0.00    -0.080 A 
ATOM      4  C3  UNL d   1       1.155  -1.879  -2.603  0.00  0.00     0.150 A 
ATOM      5  C4  UNL d   1       1.955  -0.866  -3.120  0.00  0.00    -0.007 A 
ATOM      6  C5  UNL d   1       2.250   0.249  -2.336  0.00  0.00     0.039 A 
ENDROOT
BRANCH   4   7
ATOM      7  O   UNL d   1       0.888  -2.947  -3.408  0.00  0.00    -0.526 OA
ATOM      8  H5  UNL d   1       0.300  -3.554  -2.928  0.00  0.00     0.418 HD
ENDBRANCH   4   7
TORSDOF 1
ENDMDL
