MODEL 1
REMARK minimizedAffinity -3.18236208
REMARK minimizedRMSD -1
REMARK  1 active torsions:
REMARK  status: ('A' for Active; 'I' for Inactive)
REMARK    1  A    between atoms: C3_4  and  O_7 
ROOT
ATOM      1  C   UNL d   1      -0.458   0.751  -0.873  0.00  0.00    -0.033 A 
ATOM      2  C1  UNL d   1      -1.745   0.472  -0.407  0.00  0.00     0.039 A 
ATOM      3  C2  UNL d   1      -1.932   0.003   0.895  0.00  0.00    -0.080 A 
ATOM      4  C3  UNL d   1      -0.826  -0.182   1.720  0.00  0.00     0.150 A 
ATOM      5  C4  UNL d   1       0.459   0.097   1.264  0.00  0.00    -0.007 A 
ATOM      6  C5  UNL d   1       0.643   0.565  -0.037  0.00  0.00     0.039 A 
ENDROOT
BRANCH   4   7
ATOM      7  O   UNL d   1      -0.958  -0.643   2.996  0.00  0.00    -0.526 OA
ATOM      8  H5  UNL d   1      -1.898  -0.820   3.163  0.00  0.00     0.418 HD
ENDBRANCH   4   7
TORSDOF 1
ENDMDL
