MODEL 1
REMARK minimizedAffinity -4.00425673
REMARK minimizedRMSD -1
REMARK  1 active torsions:
REMARK  status: ('A' for Active; 'I' for Inactive)
REMARK    1  A    between atoms: C3_4  and  O_7 
ROOT
ATOM      1  C   UNL d   1       0.669   0.894   0.082  0.00  0.00    -0.033 A 
ATOM      2  C1  UNL d   1       1.564   1.051   1.143  0.00  0.00     0.039 A 
ATOM      3  C2  UNL d   1       1.255   0.531   2.402  0.00  0.00    -0.080 A 
ATOM      4  C3  UNL d   1       0.051  -0.144   2.586  0.00  0.00     0.150 A 
ATOM      5  C4  UNL d   1      -0.843  -0.307   1.533  0.00  0.00    -0.007 A 
ATOM      6  C5  UNL d   1      -0.533   0.214   0.277  0.00  0.00     0.039 A 
ENDROOT
BRANCH   4   7
ATOM      7  O   UNL d   1      -0.296  -0.664   3.797  0.00  0.00    -0.526 OA
ATOM      8  H5  UNL d   1       0.404  -0.450   4.436  0.00  0.00     0.418 HD
ENDBRANCH   4   7
TORSDOF 1
ENDMDL
