MODEL 1
REMARK minimizedAffinity -5.16906834
REMARK minimizedRMSD -1
REMARK  1 active torsions:
REMARK  status: ('A' for Active; 'I' for Inactive)
REMARK    1  A    between atoms: C3_4  and  O_7 
ROOT
ATOM      1  C   UNL d   1       1.015   1.050   0.529  0.00  0.00    -0.033 A 
ATOM      2  C1  UNL d   1      -0.197   0.716   1.137  0.00  0.00     0.039 A 
ATOM      3  C2  UNL d   1      -1.398   0.892   0.447  0.00  0.00    -0.080 A 
ATOM      4  C3  UNL d   1      -1.374   1.401  -0.848  0.00  0.00     0.150 A 
ATOM      5  C4  UNL d   1      -0.170   1.732  -1.461  0.00  0.00    -0.007 A 
ATOM      6  C5  UNL d   1       1.028   1.556  -0.771  0.00  0.00     0.039 A 
ENDROOT
BRANCH   4   7
ATOM      7  O   UNL d   1      -2.521   1.595  -1.559  0.00  0.00    -0.526 OA
ATOM      8  H5  UNL d   1      -3.276   1.350  -0.998  0.00  0.00     0.418 HD
ENDBRANCH   4   7
TORSDOF 1
ENDMDL
