MODEL 1
REMARK minimizedAffinity -4.2035079
REMARK minimizedRMSD -1
REMARK  1 active torsions:
REMARK  status: ('A' for Active; 'I' for Inactive)
REMARK    1  A    between atoms: C3_4  and  O_7 
ROOT
ATOM      1  C   UNL d   1      -0.620   0.998  -1.259  0.00  0.00    -0.033 A 
ATOM      2  C1  UNL d   1       0.552   0.778  -0.534  0.00  0.00     0.039 A 
ATOM      3  C2  UNL d   1       0.490   0.222   0.745  0.00  0.00    -0.080 A 
ATOM      4  C3  UNL d   1      -0.749  -0.110   1.286  0.00  0.00     0.150 A 
ATOM      5  C4  UNL d   1      -1.921   0.103   0.568  0.00  0.00    -0.007 A 
ATOM      6  C5  UNL d   1      -1.857   0.659  -0.709  0.00  0.00     0.039 A 
ENDROOT
BRANCH   4   7
ATOM      7  O   UNL d   1      -0.860  -0.651   2.533  0.00  0.00    -0.526 OA
ATOM      8  H5  UNL d   1       0.028  -0.714   2.922  0.00  0.00     0.418 HD
ENDBRANCH   4   7
TORSDOF 1
ENDMDL
