MODEL 1
REMARK minimizedAffinity 1.61636066
REMARK minimizedRMSD -1
REMARK  1 active torsions:
REMARK  status: ('A' for Active; 'I' for Inactive)
REMARK    1  A    between atoms: C3_4  and  O_7 
ROOT
ATOM      1  C   UNL d   1      -3.870  -0.527   0.412  0.00  0.00    -0.033 A 
ATOM      2  C1  UNL d   1      -3.177   0.584  -0.071  0.00  0.00     0.039 A 
ATOM      3  C2  UNL d   1      -2.919   1.669   0.769  0.00  0.00    -0.080 A 
ATOM      4  C3  UNL d   1      -3.357   1.628   2.090  0.00  0.00     0.150 A 
ATOM      5  C4  UNL d   1      -4.045   0.523   2.580  0.00  0.00    -0.007 A 
ATOM      6  C5  UNL d   1      -4.302  -0.559   1.739  0.00  0.00     0.039 A 
ENDROOT
BRANCH   4   7
ATOM      7  O   UNL d   1      -3.133   2.665   2.947  0.00  0.00    -0.526 OA
ATOM      8  H5  UNL d   1      -2.674   3.371   2.463  0.00  0.00     0.418 HD
ENDBRANCH   4   7
TORSDOF 1
ENDMDL
