MODEL 1
REMARK minimizedAffinity -3.99294209
REMARK minimizedRMSD -1
REMARK  1 active torsions:
REMARK  status: ('A' for Active; 'I' for Inactive)
REMARK    1  A    between atoms: C3_4  and  O_7 
ROOT
ATOM      1  C   UNL d   1      -0.269  -0.162   2.946  0.00  0.00    -0.033 A 
ATOM      2  C1  UNL d   1       0.854   0.483   2.426  0.00  0.00     0.039 A 
ATOM      3  C2  UNL d   1       1.081   0.494   1.049  0.00  0.00    -0.080 A 
ATOM      4  C3  UNL d   1       0.177  -0.143   0.203  0.00  0.00     0.150 A 
ATOM      5  C4  UNL d   1      -0.947  -0.785   0.714  0.00  0.00    -0.007 A 
ATOM      6  C5  UNL d   1      -1.171  -0.795   2.090  0.00  0.00     0.039 A 
ENDROOT
BRANCH   4   7
ATOM      7  O   UNL d   1       0.358  -0.163  -1.148  0.00  0.00    -0.526 OA
ATOM      8  H5  UNL d   1       1.190   0.294  -1.354  0.00  0.00     0.418 HD
ENDBRANCH   4   7
TORSDOF 1
ENDMDL
