MODEL 1
REMARK minimizedAffinity -3.89885974
REMARK minimizedRMSD -1
REMARK  1 active torsions:
REMARK  status: ('A' for Active; 'I' for Inactive)
REMARK    1  A    between atoms: C3_4  and  O_7 
ROOT
ATOM      1  C   UNL d   1       1.878  -0.195  -3.125  0.00  0.00    -0.033 A 
ATOM      2  C1  UNL d   1       2.715  -0.907  -3.985  0.00  0.00     0.039 A 
ATOM      3  C2  UNL d   1       3.778  -0.262  -4.621  0.00  0.00    -0.080 A 
ATOM      4  C3  UNL d   1       3.993   1.093  -4.386  0.00  0.00     0.150 A 
ATOM      5  C4  UNL d   1       3.166   1.808  -3.527  0.00  0.00    -0.007 A 
ATOM      6  C5  UNL d   1       2.104   1.162  -2.894  0.00  0.00     0.039 A 
ENDROOT
BRANCH   4   7
ATOM      7  O   UNL d   1       5.015   1.767  -4.987  0.00  0.00    -0.526 OA
ATOM      8  H5  UNL d   1       5.485   1.152  -5.575  0.00  0.00     0.418 HD
ENDBRANCH   4   7
TORSDOF 1
ENDMDL
