MODEL 1
REMARK minimizedAffinity -4.70420647
REMARK minimizedRMSD -1
REMARK  1 active torsions:
REMARK  status: ('A' for Active; 'I' for Inactive)
REMARK    1  A    between atoms: C3_4  and  O_7 
ROOT
ATOM      1  C   UNL d   1       0.799   0.405  -0.049  0.00  0.00    -0.033 A 
ATOM      2  C1  UNL d   1       1.837   0.248   0.871  0.00  0.00     0.039 A 
ATOM      3  C2  UNL d   1       1.604  -0.400   2.086  0.00  0.00    -0.080 A 
ATOM      4  C3  UNL d   1       0.330  -0.887   2.367  0.00  0.00     0.150 A 
ATOM      5  C4  UNL d   1      -0.708  -0.737   1.453  0.00  0.00    -0.007 A 
ATOM      6  C5  UNL d   1      -0.473  -0.088   0.241  0.00  0.00     0.039 A 
ENDROOT
BRANCH   4   7
ATOM      7  O   UNL d   1       0.053  -1.522   3.541  0.00  0.00    -0.526 OA
ATOM      8  H5  UNL d   1       0.857  -1.527   4.085  0.00  0.00     0.418 HD
ENDBRANCH   4   7
TORSDOF 1
ENDMDL
