MODEL 1
REMARK minimizedAffinity -2.65376973
REMARK minimizedRMSD -1
REMARK  1 active torsions:
REMARK  status: ('A' for Active; 'I' for Inactive)
REMARK    1  A    between atoms: C3_4  and  O_7 
ROOT
ATOM      1  C   UNL d   1       1.539   0.717   2.996  0.00  0.00    -0.033 A 
ATOM      2  C1  UNL d   1       2.367   0.658   1.873  0.00  0.00     0.039 A 
ATOM      3  C2  UNL d   1       1.817   0.438   0.609  0.00  0.00    -0.080 A 
ATOM      4  C3  UNL d   1       0.440   0.281   0.481  0.00  0.00     0.150 A 
ATOM      5  C4  UNL d   1      -0.392   0.342   1.594  0.00  0.00    -0.007 A 
ATOM      6  C5  UNL d   1       0.159   0.560   2.856  0.00  0.00     0.039 A 
ENDROOT
BRANCH   4   7
ATOM      7  O   UNL d   1      -0.142   0.060  -0.732  0.00  0.00    -0.526 OA
ATOM      8  H5  UNL d   1       0.557   0.013  -1.405  0.00  0.00     0.418 HD
ENDBRANCH   4   7
TORSDOF 1
ENDMDL
