MODEL 1
REMARK minimizedAffinity -3.06180096
REMARK minimizedRMSD -1
REMARK  1 active torsions:
REMARK  status: ('A' for Active; 'I' for Inactive)
REMARK    1  A    between atoms: C3_4  and  O_7 
ROOT
ATOM      1  C   UNL d   1      -0.579   0.441  -0.731  0.00  0.00    -0.033 A 
ATOM      2  C1  UNL d   1      -1.827   0.371  -0.109  0.00  0.00     0.039 A 
ATOM      3  C2  UNL d   1      -1.924  -0.045   1.220  0.00  0.00    -0.080 A 
ATOM      4  C3  UNL d   1      -0.768  -0.387   1.916  0.00  0.00     0.150 A 
ATOM      5  C4  UNL d   1       0.480  -0.315   1.304  0.00  0.00    -0.007 A 
ATOM      6  C5  UNL d   1       0.575   0.100  -0.024  0.00  0.00     0.039 A 
ENDROOT
BRANCH   4   7
ATOM      7  O   UNL d   1      -0.813  -0.803   3.213  0.00  0.00    -0.526 OA
ATOM      8  H5  UNL d   1      -1.743  -0.831   3.495  0.00  0.00     0.418 HD
ENDBRANCH   4   7
TORSDOF 1
ENDMDL
