MODEL 1
REMARK minimizedAffinity -4.36080027
REMARK minimizedRMSD -1
REMARK  1 active torsions:
REMARK  status: ('A' for Active; 'I' for Inactive)
REMARK    1  A    between atoms: C3_4  and  O_7 
ROOT
ATOM      1  C   UNL d   1      -0.940  -0.461   2.580  0.00  0.00    -0.033 A 
ATOM      2  C1  UNL d   1       0.367   0.025   2.514  0.00  0.00     0.039 A 
ATOM      3  C2  UNL d   1       0.893   0.454   1.293  0.00  0.00    -0.080 A 
ATOM      4  C3  UNL d   1       0.102   0.393   0.149  0.00  0.00     0.150 A 
ATOM      5  C4  UNL d   1      -1.202  -0.086   0.209  0.00  0.00    -0.007 A 
ATOM      6  C5  UNL d   1      -1.725  -0.515   1.428  0.00  0.00     0.039 A 
ENDROOT
BRANCH   4   7
ATOM      7  O   UNL d   1       0.574   0.796  -1.065  0.00  0.00    -0.526 OA
ATOM      8  H5  UNL d   1       1.498   1.075  -0.959  0.00  0.00     0.418 HD
ENDBRANCH   4   7
TORSDOF 1
ENDMDL
