MODEL 1
REMARK minimizedAffinity 16.4358292
REMARK minimizedRMSD -1
REMARK  1 active torsions:
REMARK  status: ('A' for Active; 'I' for Inactive)
REMARK    1  A    between atoms: C1_2  and  C2_3 
ROOT
ATOM      1  C2  UNL d   1      -4.727   1.412  -1.177  0.00  0.00    -0.073 A 
ATOM      2  C3  UNL d   1      -5.732   0.570  -1.668  0.00  0.00    -0.002 A 
ATOM      3  C4  UNL d   1      -5.993  -0.652  -1.047  0.00  0.00     0.004 A 
ATOM      4  C5  UNL d   1      -5.259  -1.042   0.072  0.00  0.00    -0.004 A 
ATOM      5  C6  UNL d   1      -4.259  -0.210   0.585  0.00  0.00    -0.075 A 
ATOM      6  C7  UNL d   1      -3.458  -0.616   1.787  0.00  0.00     0.076 C 
ATOM      7  C8  UNL d   1      -4.000   1.015  -0.045  0.00  0.00     0.001 A 
ENDROOT
BRANCH   1   8
ATOM      8  C1  UNL d   1      -4.445   2.735  -1.840  0.00  0.00     0.053 C 
ATOM      9  C   UNL d   1      -5.403   3.013  -2.988  0.00  0.00     0.018 C 
ENDBRANCH   1   8
TORSDOF 1
ENDMDL
