MODEL 1
REMARK minimizedAffinity 11.3279295
REMARK minimizedRMSD -1
REMARK  1 active torsions:
REMARK  status: ('A' for Active; 'I' for Inactive)
REMARK    1  A    between atoms: C1_2  and  C2_3 
ROOT
ATOM      1  C2  UNL d   1       5.126   1.325   1.066  0.00  0.00    -0.073 A 
ATOM      2  C3  UNL d   1       6.000   1.843   0.103  0.00  0.00    -0.002 A 
ATOM      3  C4  UNL d   1       5.630   1.868  -1.242  0.00  0.00     0.004 A 
ATOM      4  C5  UNL d   1       4.384   1.383  -1.637  0.00  0.00    -0.004 A 
ATOM      5  C6  UNL d   1       3.493   0.872  -0.688  0.00  0.00    -0.075 A 
ATOM      6  C7  UNL d   1       2.149   0.344  -1.097  0.00  0.00     0.076 C 
ATOM      7  C8  UNL d   1       3.872   0.847   0.661  0.00  0.00     0.001 A 
ENDROOT
BRANCH   1   8
ATOM      8  C1  UNL d   1       5.518   1.301   2.521  0.00  0.00     0.053 C 
ATOM      9  C   UNL d   1       5.999  -0.073   2.960  0.00  0.00     0.018 C 
ENDBRANCH   1   8
TORSDOF 1
ENDMDL
