MODEL 1
REMARK minimizedAffinity 18.6198616
REMARK minimizedRMSD -1
REMARK  1 active torsions:
REMARK  status: ('A' for Active; 'I' for Inactive)
REMARK    1  A    between atoms: C1_2  and  C2_3 
ROOT
ATOM      1  C2  UNL d   1      -1.298  -5.104  -1.551  0.00  0.00    -0.073 A 
ATOM      2  C3  UNL d   1      -1.948  -5.647  -2.665  0.00  0.00    -0.002 A 
ATOM      3  C4  UNL d   1      -2.437  -4.814  -3.672  0.00  0.00     0.004 A 
ATOM      4  C5  UNL d   1      -2.275  -3.432  -3.580  0.00  0.00    -0.004 A 
ATOM      5  C6  UNL d   1      -1.619  -2.870  -2.480  0.00  0.00    -0.075 A 
ATOM      6  C7  UNL d   1      -1.439  -1.385  -2.364  0.00  0.00     0.076 C 
ATOM      7  C8  UNL d   1      -1.133  -3.714  -1.471  0.00  0.00     0.001 A 
ENDROOT
BRANCH   1   8
ATOM      8  C1  UNL d   1      -0.763  -6.000  -0.464  0.00  0.00     0.053 C 
ATOM      9  C   UNL d   1      -1.020  -5.431   0.922  0.00  0.00     0.018 C 
ENDBRANCH   1   8
TORSDOF 1
ENDMDL
