MODEL 1
REMARK minimizedAffinity 6.47240114
REMARK minimizedRMSD -1
REMARK  1 active torsions:
REMARK  status: ('A' for Active; 'I' for Inactive)
REMARK    1  A    between atoms: C1_2  and  C2_3 
ROOT
ATOM      1  C2  UNL d   1       1.279  -3.222   5.663  0.00  0.00    -0.073 A 
ATOM      2  C3  UNL d   1       0.073  -3.620   5.074  0.00  0.00    -0.002 A 
ATOM      3  C4  UNL d   1      -0.918  -2.679   4.794  0.00  0.00     0.004 A 
ATOM      4  C5  UNL d   1      -0.713  -1.332   5.092  0.00  0.00    -0.004 A 
ATOM      5  C6  UNL d   1       0.490  -0.913   5.669  0.00  0.00    -0.075 A 
ATOM      6  C7  UNL d   1       0.726   0.531   5.998  0.00  0.00     0.076 C 
ATOM      7  C8  UNL d   1       1.480  -1.865   5.951  0.00  0.00     0.001 A 
ENDROOT
BRANCH   1   8
ATOM      8  C1  UNL d   1       2.355  -4.234   5.962  0.00  0.00     0.053 C 
ATOM      9  C   UNL d   1       1.810  -5.653   5.998  0.00  0.00     0.018 C 
ENDBRANCH   1   8
TORSDOF 1
ENDMDL
