MODEL 1
REMARK minimizedAffinity -0.74926883
REMARK minimizedRMSD -1
REMARK  2 active torsions:
REMARK  status: ('A' for Active; 'I' for Inactive)
REMARK    1  A    between atoms: C2'_3  and  C1'_4 
REMARK    2  A    between atoms: C1'_4  and  C1_5 
ROOT
ATOM      1  C1  I4B d   1      -1.959  -2.289  -0.383  0.00  0.00    -0.075 A 
ATOM      2  C2  I4B d   1      -0.709  -2.499   0.145  0.00  0.00     0.003 A 
ATOM      3  C3  I4B d   1       0.101  -3.554  -0.341  0.00  0.00     0.002 A 
ATOM      4  C4  I4B d   1      -0.394  -4.399  -1.313  0.00  0.00    -0.004 A 
ATOM      5  C5  I4B d   1      -1.652  -4.170  -1.863  0.00  0.00     0.002 A 
ATOM      6  C6  I4B d   1      -2.435  -3.101  -1.404  0.00  0.00     0.003 A 
ENDROOT
BRANCH   1   7
ATOM      7  C1' I4B d   1      -2.801  -1.186   0.177  0.00  0.00     0.060 C 
BRANCH   7   8
ATOM      8  C2' I4B d   1      -2.623  -1.181   1.682  0.00  0.00    -0.013 C 
ATOM      9  C4' I4B d   1      -2.504   0.224   2.212  0.00  0.00     0.013 C 
ATOM     10  C3' I4B d   1      -3.797  -1.890   2.289  0.00  0.00     0.013 C 
ENDBRANCH   7   8
ENDBRANCH   1   7
TORSDOF 2
ENDMDL
