MODEL 1
REMARK minimizedAffinity -1.72271681
REMARK minimizedRMSD -1
REMARK  2 active torsions:
REMARK  status: ('A' for Active; 'I' for Inactive)
REMARK    1  A    between atoms: C2'_3  and  C1'_4 
REMARK    2  A    between atoms: C1'_4  and  C1_5 
ROOT
ATOM      1  C1  I4B d   1      -0.006  -2.514   0.340  0.00  0.00    -0.075 A 
ATOM      2  C2  I4B d   1      -0.289  -3.643  -0.387  0.00  0.00     0.003 A 
ATOM      3  C3  I4B d   1      -1.627  -4.088  -0.521  0.00  0.00     0.002 A 
ATOM      4  C4  I4B d   1      -2.638  -3.407   0.126  0.00  0.00    -0.004 A 
ATOM      5  C5  I4B d   1      -2.351  -2.249   0.844  0.00  0.00     0.002 A 
ATOM      6  C6  I4B d   1      -1.029  -1.793   0.942  0.00  0.00     0.003 A 
ENDROOT
BRANCH   1   7
ATOM      7  C1' I4B d   1       1.421  -2.091   0.489  0.00  0.00     0.060 C 
BRANCH   7   8
ATOM      8  C2' I4B d   1       1.597  -0.777  -0.244  0.00  0.00    -0.013 C 
ATOM      9  C4' I4B d   1       1.787   0.364   0.720  0.00  0.00     0.013 C 
ATOM     10  C3' I4B d   1       2.776  -0.912  -1.162  0.00  0.00     0.013 C 
ENDBRANCH   7   8
ENDBRANCH   1   7
TORSDOF 2
ENDMDL
