MODEL 1
REMARK minimizedAffinity -0.0503976196
REMARK minimizedRMSD -1
REMARK  2 active torsions:
REMARK  status: ('A' for Active; 'I' for Inactive)
REMARK    1  A    between atoms: C2'_3  and  C1'_4 
REMARK    2  A    between atoms: C1'_4  and  C1_5 
ROOT
ATOM      1  C1  I4B d   1      -0.773  -3.897  -0.926  0.00  0.00    -0.075 A 
ATOM      2  C2  I4B d   1      -1.899  -3.498  -1.601  0.00  0.00     0.003 A 
ATOM      3  C3  I4B d   1      -3.028  -4.350  -1.671  0.00  0.00     0.002 A 
ATOM      4  C4  I4B d   1      -2.969  -5.604  -1.098  0.00  0.00    -0.004 A 
ATOM      5  C5  I4B d   1      -1.835  -5.998  -0.394  0.00  0.00     0.002 A 
ATOM      6  C6  I4B d   1      -0.734  -5.135  -0.297  0.00  0.00     0.003 A 
ENDROOT
BRANCH   1   7
ATOM      7  C1' I4B d   1       0.413  -2.986  -0.900  0.00  0.00     0.060 C 
BRANCH   7   8
ATOM      8  C2' I4B d   1       0.279  -2.079   0.307  0.00  0.00    -0.013 C 
ATOM      9  C4' I4B d   1       1.282  -0.957   0.261  0.00  0.00     0.013 C 
ATOM     10  C3' I4B d   1      -1.124  -1.550   0.335  0.00  0.00     0.013 C 
ENDBRANCH   7   8
ENDBRANCH   1   7
TORSDOF 2
ENDMDL
