MODEL 1
REMARK minimizedAffinity 9.83058167
REMARK minimizedRMSD -1
REMARK  2 active torsions:
REMARK  status: ('A' for Active; 'I' for Inactive)
REMARK    1  A    between atoms: C2'_3  and  C1'_4 
REMARK    2  A    between atoms: C1'_4  and  C1_5 
ROOT
ATOM      1  C1  I4B d   1       2.765   2.832   2.080  0.00  0.00    -0.075 A 
ATOM      2  C2  I4B d   1       1.645   2.085   2.346  0.00  0.00     0.003 A 
ATOM      3  C3  I4B d   1       0.517   2.684   2.958  0.00  0.00     0.002 A 
ATOM      4  C4  I4B d   1       0.571   4.012   3.331  0.00  0.00    -0.004 A 
ATOM      5  C5  I4B d   1       1.700   4.773   3.040  0.00  0.00     0.002 A 
ATOM      6  C6  I4B d   1       2.799   4.183   2.400  0.00  0.00     0.003 A 
ENDROOT
BRANCH   1   7
ATOM      7  C1' I4B d   1       3.950   2.159   1.463  0.00  0.00     0.060 C 
BRANCH   7   8
ATOM      8  C2' I4B d   1       5.193   2.905   1.905  0.00  0.00    -0.013 C 
ATOM      9  C4' I4B d   1       5.999   2.090   2.881  0.00  0.00     0.013 C 
ATOM     10  C3' I4B d   1       5.995   3.234   0.681  0.00  0.00     0.013 C 
ENDBRANCH   7   8
ENDBRANCH   1   7
TORSDOF 2
ENDMDL
