MODEL 1
REMARK minimizedAffinity 14.4337072
REMARK minimizedRMSD -1
REMARK  2 active torsions:
REMARK  status: ('A' for Active; 'I' for Inactive)
REMARK    1  A    between atoms: C2'_3  and  C1'_4 
REMARK    2  A    between atoms: C1'_4  and  C1_5 
ROOT
ATOM      1  C1  I4B d   1       4.804  -3.428  -1.475  0.00  0.00    -0.075 A 
ATOM      2  C2  I4B d   1       3.951  -3.604  -0.414  0.00  0.00     0.003 A 
ATOM      3  C3  I4B d   1       3.015  -2.596  -0.078  0.00  0.00     0.002 A 
ATOM      4  C4  I4B d   1       3.001  -1.415  -0.792  0.00  0.00    -0.004 A 
ATOM      5  C5  I4B d   1       3.852  -1.248  -1.881  0.00  0.00     0.002 A 
ATOM      6  C6  I4B d   1       4.751  -2.266  -2.233  0.00  0.00     0.003 A 
ENDROOT
BRANCH   1   7
ATOM      7  C1' I4B d   1       5.802  -4.499  -1.782  0.00  0.00     0.060 C 
BRANCH   7   8
ATOM      8  C2' I4B d   1       5.064  -5.654  -2.427  0.00  0.00    -0.013 C 
ATOM      9  C4' I4B d   1       3.621  -5.306  -2.680  0.00  0.00     0.013 C 
ATOM     10  C3' I4B d   1       5.769  -5.999  -3.704  0.00  0.00     0.013 C 
ENDBRANCH   7   8
ENDBRANCH   1   7
TORSDOF 2
ENDMDL
