MODEL 1
REMARK minimizedAffinity 6.15217066
REMARK minimizedRMSD -1
REMARK  2 active torsions:
REMARK  status: ('A' for Active; 'I' for Inactive)
REMARK    1  A    between atoms: C2'_3  and  C1'_4 
REMARK    2  A    between atoms: C1'_4  and  C1_5 
ROOT
ATOM      1  C1  I4B d   1       1.860  -0.311   0.689  0.00  0.00    -0.075 A 
ATOM      2  C2  I4B d   1       0.707  -1.005   0.956  0.00  0.00     0.003 A 
ATOM      3  C3  I4B d   1       0.654  -2.405   0.751  0.00  0.00     0.002 A 
ATOM      4  C4  I4B d   1       1.754  -3.058   0.233  0.00  0.00    -0.004 A 
ATOM      5  C5  I4B d   1       2.930  -2.357  -0.015  0.00  0.00     0.002 A 
ATOM      6  C6  I4B d   1       2.988  -0.976   0.225  0.00  0.00     0.003 A 
ENDROOT
BRANCH   1   7
ATOM      7  C1' I4B d   1       1.871   1.172   0.885  0.00  0.00     0.060 C 
BRANCH   7   8
ATOM      8  C2' I4B d   1       2.540   1.462   2.213  0.00  0.00    -0.013 C 
ATOM      9  C4' I4B d   1       3.916   2.041   2.016  0.00  0.00     0.013 C 
ATOM     10  C3' I4B d   1       1.661   2.406   2.978  0.00  0.00     0.013 C 
ENDBRANCH   7   8
ENDBRANCH   1   7
TORSDOF 2
ENDMDL
