MODEL 1
REMARK minimizedAffinity 10.0513153
REMARK minimizedRMSD -1
REMARK  2 active torsions:
REMARK  status: ('A' for Active; 'I' for Inactive)
REMARK    1  A    between atoms: C2'_3  and  C1'_4 
REMARK    2  A    between atoms: C1'_4  and  C1_5 
ROOT
ATOM      1  C1  I4B d   1       4.041   4.171   3.029  0.00  0.00    -0.075 A 
ATOM      2  C2  I4B d   1       2.714   4.062   2.695  0.00  0.00     0.003 A 
ATOM      3  C3  I4B d   1       2.221   2.869   2.114  0.00  0.00     0.002 A 
ATOM      4  C4  I4B d   1       3.094   1.836   1.838  0.00  0.00    -0.004 A 
ATOM      5  C5  I4B d   1       4.435   1.940   2.198  0.00  0.00     0.002 A 
ATOM      6  C6  I4B d   1       4.909   3.110   2.808  0.00  0.00     0.003 A 
ENDROOT
BRANCH   1   7
ATOM      7  C1' I4B d   1       4.534   5.458   3.611  0.00  0.00     0.060 C 
BRANCH   7   8
ATOM      8  C2' I4B d   1       4.789   5.235   5.088  0.00  0.00    -0.013 C 
ATOM      9  C4' I4B d   1       5.999   6.000   5.554  0.00  0.00     0.013 C 
ATOM     10  C3' I4B d   1       3.561   5.655   5.839  0.00  0.00     0.013 C 
ENDBRANCH   7   8
ENDBRANCH   1   7
TORSDOF 2
ENDMDL
