MODEL 1
REMARK minimizedAffinity 11.5836916
REMARK minimizedRMSD -1
REMARK  2 active torsions:
REMARK  status: ('A' for Active; 'I' for Inactive)
REMARK    1  A    between atoms: C2'_3  and  C1'_4 
REMARK    2  A    between atoms: C1'_4  and  C1_5 
ROOT
ATOM      1  C1  I4B d   1       3.973   4.071   2.832  0.00  0.00    -0.075 A 
ATOM      2  C2  I4B d   1       3.882   4.199   1.468  0.00  0.00     0.003 A 
ATOM      3  C3  I4B d   1       2.890   3.487   0.751  0.00  0.00     0.002 A 
ATOM      4  C4  I4B d   1       2.049   2.626   1.426  0.00  0.00    -0.004 A 
ATOM      5  C5  I4B d   1       2.128   2.515   2.811  0.00  0.00     0.002 A 
ATOM      6  C6  I4B d   1       3.088   3.251   3.520  0.00  0.00     0.003 A 
ENDROOT
BRANCH   1   7
ATOM      7  C1' I4B d   1       5.053   4.812   3.554  0.00  0.00     0.060 C 
BRANCH   7   8
ATOM      8  C2' I4B d   1       5.162   4.234   4.951  0.00  0.00    -0.013 C 
ATOM      9  C4' I4B d   1       5.999   2.983   4.960  0.00  0.00     0.013 C 
ATOM     10  C3' I4B d   1       5.750   5.286   5.843  0.00  0.00     0.013 C 
ENDBRANCH   7   8
ENDBRANCH   1   7
TORSDOF 2
ENDMDL
