MODEL 1
REMARK minimizedAffinity 4.94194126
REMARK minimizedRMSD -1
REMARK  2 active torsions:
REMARK  status: ('A' for Active; 'I' for Inactive)
REMARK    1  A    between atoms: C2'_3  and  C1'_4 
REMARK    2  A    between atoms: C1'_4  and  C1_5 
ROOT
ATOM      1  C1  I4B d   1      -0.101  -4.726  -0.802  0.00  0.00    -0.075 A 
ATOM      2  C2  I4B d   1      -0.789  -3.562  -0.566  0.00  0.00     0.003 A 
ATOM      3  C3  I4B d   1      -2.065  -3.358  -1.145  0.00  0.00     0.002 A 
ATOM      4  C4  I4B d   1      -2.590  -4.316  -1.988  0.00  0.00    -0.004 A 
ATOM      5  C5  I4B d   1      -1.901  -5.506  -2.208  0.00  0.00     0.002 A 
ATOM      6  C6  I4B d   1      -0.654  -5.718  -1.601  0.00  0.00     0.003 A 
ENDROOT
BRANCH   1   7
ATOM      7  C1' I4B d   1       1.259  -4.894  -0.201  0.00  0.00     0.060 C 
BRANCH   7   8
ATOM      8  C2' I4B d   1       1.426  -3.844   0.878  0.00  0.00    -0.013 C 
ATOM      9  C4' I4B d   1       1.563  -4.476   2.238  0.00  0.00     0.013 C 
ATOM     10  C3' I4B d   1       2.632  -3.020   0.539  0.00  0.00     0.013 C 
ENDBRANCH   7   8
ENDBRANCH   1   7
TORSDOF 2
ENDMDL
