MODEL 1
REMARK minimizedAffinity 4.63500261
REMARK minimizedRMSD -1
REMARK  2 active torsions:
REMARK  status: ('A' for Active; 'I' for Inactive)
REMARK    1  A    between atoms: C2'_3  and  C1'_4 
REMARK    2  A    between atoms: C1'_4  and  C1_5 
ROOT
ATOM      1  C1  I4B d   1       3.233   4.270   2.574  0.00  0.00    -0.075 A 
ATOM      2  C2  I4B d   1       1.918   3.905   2.716  0.00  0.00     0.003 A 
ATOM      3  C3  I4B d   1       1.526   2.560   2.510  0.00  0.00     0.002 A 
ATOM      4  C4  I4B d   1       2.467   1.630   2.116  0.00  0.00    -0.004 A 
ATOM      5  C5  I4B d   1       3.803   1.998   1.994  0.00  0.00     0.002 A 
ATOM      6  C6  I4B d   1       4.192   3.323   2.237  0.00  0.00     0.003 A 
ENDROOT
BRANCH   1   7
ATOM      7  C1' I4B d   1       3.607   5.706   2.767  0.00  0.00     0.060 C 
BRANCH   7   8
ATOM      8  C2' I4B d   1       3.587   5.997   4.254  0.00  0.00    -0.013 C 
ATOM      9  C4' I4B d   1       2.186   5.933   4.803  0.00  0.00     0.013 C 
ATOM     10  C3' I4B d   1       4.481   5.003   4.933  0.00  0.00     0.013 C 
ENDBRANCH   7   8
ENDBRANCH   1   7
TORSDOF 2
ENDMDL
