MODEL 1
REMARK minimizedAffinity 10.7480621
REMARK minimizedRMSD -1
REMARK  2 active torsions:
REMARK  status: ('A' for Active; 'I' for Inactive)
REMARK    1  A    between atoms: C2'_3  and  C1'_4 
REMARK    2  A    between atoms: C1'_4  and  C1_5 
ROOT
ATOM      1  C1  I4B d   1      -4.031   1.422   0.412  0.00  0.00    -0.075 A 
ATOM      2  C2  I4B d   1      -4.491   2.670   0.752  0.00  0.00     0.003 A 
ATOM      3  C3  I4B d   1      -5.508   3.288  -0.015  0.00  0.00     0.002 A 
ATOM      4  C4  I4B d   1      -5.998   2.649  -1.136  0.00  0.00    -0.004 A 
ATOM      5  C5  I4B d   1      -5.546   1.374  -1.466  0.00  0.00     0.002 A 
ATOM      6  C6  I4B d   1      -4.566   0.751  -0.680  0.00  0.00     0.003 A 
ENDROOT
BRANCH   1   7
ATOM      7  C1' I4B d   1      -2.933   0.813   1.225  0.00  0.00     0.060 C 
BRANCH   7   8
ATOM      8  C2' I4B d   1      -3.170  -0.682   1.282  0.00  0.00    -0.013 C 
ATOM      9  C4' I4B d   1      -1.919  -1.446   0.934  0.00  0.00     0.013 C 
ATOM     10  C3' I4B d   1      -3.646  -1.023   2.663  0.00  0.00     0.013 C 
ENDBRANCH   7   8
ENDBRANCH   1   7
TORSDOF 2
ENDMDL
