MODEL 1
REMARK minimizedAffinity 3.02484226
REMARK minimizedRMSD -1
REMARK  2 active torsions:
REMARK  status: ('A' for Active; 'I' for Inactive)
REMARK    1  A    between atoms: C2'_3  and  C1'_4 
REMARK    2  A    between atoms: C1'_4  and  C1_5 
ROOT
ATOM      1  C1  I4B d   1       3.590   4.696   2.679  0.00  0.00    -0.075 A 
ATOM      2  C2  I4B d   1       3.749   4.991   1.348  0.00  0.00     0.003 A 
ATOM      3  C3  I4B d   1       3.251   4.110   0.358  0.00  0.00     0.002 A 
ATOM      4  C4  I4B d   1       2.648   2.929   0.741  0.00  0.00    -0.004 A 
ATOM      5  C5  I4B d   1       2.467   2.643   2.091  0.00  0.00     0.002 A 
ATOM      6  C6  I4B d   1       2.930   3.538   3.066  0.00  0.00     0.003 A 
ENDROOT
BRANCH   1   7
ATOM      7  C1' I4B d   1       4.158   5.633   3.697  0.00  0.00     0.060 C 
BRANCH   7   8
ATOM      8  C2' I4B d   1       3.999   4.993   5.061  0.00  0.00    -0.013 C 
ATOM      9  C4' I4B d   1       5.324   4.524   5.602  0.00  0.00     0.013 C 
ATOM     10  C3' I4B d   1       3.367   6.000   5.975  0.00  0.00     0.013 C 
ENDBRANCH   7   8
ENDBRANCH   1   7
TORSDOF 2
ENDMDL
