MODEL 1
REMARK minimizedAffinity 4.90293074
REMARK minimizedRMSD -1
REMARK  1 active torsions:
REMARK  status: ('A' for Active; 'I' for Inactive)
REMARK    1  A    between atoms: C1_2  and  C2_3 
ROOT
ATOM      1  C2  UNL d   1      -0.971   2.145  -0.918  0.00  0.00    -0.077 A 
ATOM      2  C3  UNL d   1      -0.643   2.428   0.415  0.00  0.00     0.002 A 
ATOM      3  C4  UNL d   1      -0.332   3.732   0.805  0.00  0.00     0.002 A 
ATOM      4  C5  UNL d   1      -0.350   4.763  -0.131  0.00  0.00    -0.004 A 
ATOM      5  C6  UNL d   1      -0.673   4.492  -1.460  0.00  0.00     0.002 A 
ATOM      6  C7  UNL d   1      -0.983   3.189  -1.852  0.00  0.00     0.002 A 
ENDROOT
BRANCH   1   7
ATOM      7  C1  UNL d   1      -1.355   0.748  -1.330  0.00  0.00     0.055 C 
ATOM      8  C   UNL d   1      -0.125  -0.117  -1.567  0.00  0.00     0.019 C 
ENDBRANCH   1   7
TORSDOF 1
ENDMDL
