MODEL 1
REMARK minimizedAffinity 11.4941664
REMARK minimizedRMSD -1
REMARK  1 active torsions:
REMARK  status: ('A' for Active; 'I' for Inactive)
REMARK    1  A    between atoms: C1_2  and  C2_3 
ROOT
ATOM      1  C2  UNL d   1      -0.833  -0.697  -1.760  0.00  0.00    -0.077 A 
ATOM      2  C3  UNL d   1      -2.037  -1.410  -1.848  0.00  0.00     0.002 A 
ATOM      3  C4  UNL d   1      -3.233  -0.832  -1.421  0.00  0.00     0.002 A 
ATOM      4  C5  UNL d   1      -3.238   0.463  -0.907  0.00  0.00    -0.004 A 
ATOM      5  C6  UNL d   1      -2.046   1.180  -0.813  0.00  0.00     0.002 A 
ATOM      6  C7  UNL d   1      -0.849   0.602  -1.238  0.00  0.00     0.002 A 
ENDROOT
BRANCH   1   7
ATOM      7  C1  UNL d   1       0.451  -1.301  -2.266  0.00  0.00     0.055 C 
ATOM      8  C   UNL d   1       1.478  -1.432  -1.151  0.00  0.00     0.019 C 
ENDBRANCH   1   7
TORSDOF 1
ENDMDL
