MODEL 1
REMARK minimizedAffinity 5.90457201
REMARK minimizedRMSD -1
REMARK  1 active torsions:
REMARK  status: ('A' for Active; 'I' for Inactive)
REMARK    1  A    between atoms: C1_2  and  C2_3 
ROOT
ATOM      1  C2  UNL d   1       2.883  -1.942  -1.088  0.00  0.00    -0.077 A 
ATOM      2  C3  UNL d   1       2.422  -3.170  -0.594  0.00  0.00     0.002 A 
ATOM      3  C4  UNL d   1       3.324  -4.122  -0.113  0.00  0.00     0.002 A 
ATOM      4  C5  UNL d   1       4.691  -3.854  -0.120  0.00  0.00    -0.004 A 
ATOM      5  C6  UNL d   1       5.160  -2.637  -0.611  0.00  0.00     0.002 A 
ATOM      6  C7  UNL d   1       4.260  -1.685  -1.093  0.00  0.00     0.002 A 
ENDROOT
BRANCH   1   7
ATOM      7  C1  UNL d   1       1.909  -0.895  -1.561  0.00  0.00     0.055 C 
ATOM      8  C   UNL d   1       0.837  -1.499  -2.456  0.00  0.00     0.019 C 
ENDBRANCH   1   7
TORSDOF 1
ENDMDL
