MODEL 1
REMARK minimizedAffinity 6.35267973
REMARK minimizedRMSD -1
REMARK  1 active torsions:
REMARK  status: ('A' for Active; 'I' for Inactive)
REMARK    1  A    between atoms: C1_2  and  C2_3 
ROOT
ATOM      1  C2  UNL d   1       0.095   2.737   1.203  0.00  0.00    -0.077 A 
ATOM      2  C3  UNL d   1       0.331   4.066   0.825  0.00  0.00     0.002 A 
ATOM      3  C4  UNL d   1      -0.039   4.517  -0.443  0.00  0.00     0.002 A 
ATOM      4  C5  UNL d   1      -0.651   3.646  -1.342  0.00  0.00    -0.004 A 
ATOM      5  C6  UNL d   1      -0.889   2.322  -0.977  0.00  0.00     0.002 A 
ATOM      6  C7  UNL d   1      -0.518   1.869   0.290  0.00  0.00     0.002 A 
ENDROOT
BRANCH   1   7
ATOM      7  C1  UNL d   1       0.449   2.262   2.588  0.00  0.00     0.055 C 
ATOM      8  C   UNL d   1      -0.451   1.116   3.027  0.00  0.00     0.019 C 
ENDBRANCH   1   7
TORSDOF 1
ENDMDL
