MODEL 1
REMARK minimizedAffinity 3.27952027
REMARK minimizedRMSD -1
REMARK  1 active torsions:
REMARK  status: ('A' for Active; 'I' for Inactive)
REMARK    1  A    between atoms: C1_2  and  C2_3 
ROOT
ATOM      1  C2  UNL d   1      -1.142   3.051   0.912  0.00  0.00    -0.077 A 
ATOM      2  C3  UNL d   1      -0.551   2.466  -0.216  0.00  0.00     0.002 A 
ATOM      3  C4  UNL d   1      -0.284   3.232  -1.352  0.00  0.00     0.002 A 
ATOM      4  C5  UNL d   1      -0.601   4.589  -1.370  0.00  0.00    -0.004 A 
ATOM      5  C6  UNL d   1      -1.191   5.180  -0.253  0.00  0.00     0.002 A 
ATOM      6  C7  UNL d   1      -1.460   4.415   0.883  0.00  0.00     0.002 A 
ENDROOT
BRANCH   1   7
ATOM      7  C1  UNL d   1      -1.385   2.237   2.156  0.00  0.00     0.055 C 
ATOM      8  C   UNL d   1      -0.080   1.908   2.866  0.00  0.00     0.019 C 
ENDBRANCH   1   7
TORSDOF 1
ENDMDL
