MODEL 1
REMARK minimizedAffinity 3.52328706
REMARK minimizedRMSD -1
REMARK  1 active torsions:
REMARK  status: ('A' for Active; 'I' for Inactive)
REMARK    1  A    between atoms: C1_2  and  C2_3 
ROOT
ATOM      1  C2  UNL d   1      -0.083   2.302   1.051  0.00  0.00    -0.077 A 
ATOM      2  C3  UNL d   1       1.159   2.762   1.511  0.00  0.00     0.002 A 
ATOM      3  C4  UNL d   1       1.605   2.430   2.792  0.00  0.00     0.002 A 
ATOM      4  C5  UNL d   1       0.817   1.635   3.621  0.00  0.00    -0.004 A 
ATOM      5  C6  UNL d   1      -0.421   1.175   3.174  0.00  0.00     0.002 A 
ATOM      6  C7  UNL d   1      -0.868   1.506   1.894  0.00  0.00     0.002 A 
ENDROOT
BRANCH   1   7
ATOM      7  C1  UNL d   1      -0.543   2.618  -0.349  0.00  0.00     0.055 C 
ATOM      8  C   UNL d   1      -0.355   4.092  -0.674  0.00  0.00     0.019 C 
ENDBRANCH   1   7
TORSDOF 1
ENDMDL
