MODEL 1
REMARK minimizedAffinity 8.17789936
REMARK minimizedRMSD -1
REMARK  1 active torsions:
REMARK  status: ('A' for Active; 'I' for Inactive)
REMARK    1  A    between atoms: C1_2  and  C2_3 
ROOT
ATOM      1  C2  UNL d   1       0.076   3.527   0.979  0.00  0.00    -0.077 A 
ATOM      2  C3  UNL d   1       1.285   3.355   1.668  0.00  0.00     0.002 A 
ATOM      3  C4  UNL d   1       1.305   2.719   2.911  0.00  0.00     0.002 A 
ATOM      4  C5  UNL d   1       0.121   2.246   3.473  0.00  0.00    -0.004 A 
ATOM      5  C6  UNL d   1      -1.086   2.415   2.797  0.00  0.00     0.002 A 
ATOM      6  C7  UNL d   1      -1.109   3.051   1.555  0.00  0.00     0.002 A 
ENDROOT
BRANCH   1   7
ATOM      7  C1  UNL d   1       0.059   4.169  -0.384  0.00  0.00     0.055 C 
ATOM      8  C   UNL d   1      -0.559   3.245  -1.423  0.00  0.00     0.019 C 
ENDBRANCH   1   7
TORSDOF 1
ENDMDL
