MODEL 1
REMARK minimizedAffinity -4.19578362
REMARK minimizedRMSD -1
REMARK  0 active torsions:
REMARK  status: ('A' for Active; 'I' for Inactive)
ROOT
ATOM      1  C   UNL d   1      -3.128  -1.834   0.289  0.00  0.00    -0.002 A 
ATOM      2  C1  UNL d   1      -2.498  -2.571   1.281  0.00  0.00     0.010 A 
ATOM      3  C2  UNL d   1      -1.157  -2.340   1.594  0.00  0.00     0.041 A 
ATOM      4  C3  UNL d   1      -0.453  -1.345   0.887  0.00  0.00    -0.075 A 
ATOM      5  S   UNL d   1       1.195  -0.887   1.100  0.00  0.00     0.015 SA
ATOM      6  C4  UNL d   1       1.101   0.298  -0.121  0.00  0.00     0.022 A 
ATOM      7  C5  UNL d   1      -0.150   0.356  -0.688  0.00  0.00     0.026 A 
ATOM      8  C6  UNL d   1      -1.067  -0.589  -0.116  0.00  0.00    -0.082 A 
ATOM      9  C7  UNL d   1      -2.427  -0.848  -0.411  0.00  0.00     0.045 A 
ENDROOT
TORSDOF 0
ENDMDL
