MODEL 1
REMARK minimizedAffinity -0.949813902
REMARK minimizedRMSD -1
REMARK  0 active torsions:
REMARK  status: ('A' for Active; 'I' for Inactive)
ROOT
ATOM      1  C   UNL d   1       2.999   2.526   1.678  0.00  0.00    -0.002 A 
ATOM      2  C1  UNL d   1       3.319   1.516   2.575  0.00  0.00     0.010 A 
ATOM      3  C2  UNL d   1       2.629   0.302   2.553  0.00  0.00     0.041 A 
ATOM      4  C3  UNL d   1       1.605   0.117   1.604  0.00  0.00    -0.075 A 
ATOM      5  S   UNL d   1       0.626  -1.286   1.391  0.00  0.00     0.015 SA
ATOM      6  C4  UNL d   1      -0.238  -0.579   0.103  0.00  0.00     0.022 A 
ATOM      7  C5  UNL d   1       0.196   0.696  -0.171  0.00  0.00     0.026 A 
ATOM      8  C6  UNL d   1       1.266   1.119   0.690  0.00  0.00    -0.082 A 
ATOM      9  C7  UNL d   1       1.982   2.339   0.738  0.00  0.00     0.045 A 
ENDROOT
TORSDOF 0
ENDMDL
