MODEL 1
REMARK minimizedAffinity -1.62771714
REMARK minimizedRMSD -1
REMARK  0 active torsions:
REMARK  status: ('A' for Active; 'I' for Inactive)
ROOT
ATOM      1  C   UNL d   1      -3.187  -0.395  -0.532  0.00  0.00    -0.002 A 
ATOM      2  C1  UNL d   1      -3.047  -0.005   0.793  0.00  0.00     0.010 A 
ATOM      3  C2  UNL d   1      -1.790   0.310   1.311  0.00  0.00     0.041 A 
ATOM      4  C3  UNL d   1      -0.664   0.226   0.468  0.00  0.00    -0.075 A 
ATOM      5  S   UNL d   1       0.974   0.564   0.885  0.00  0.00     0.015 SA
ATOM      6  C4  UNL d   1       1.527   0.198  -0.685  0.00  0.00     0.022 A 
ATOM      7  C5  UNL d   1       0.500  -0.175  -1.520  0.00  0.00     0.026 A 
ATOM      8  C6  UNL d   1      -0.780  -0.164  -0.869  0.00  0.00    -0.082 A 
ATOM      9  C7  UNL d   1      -2.068  -0.477  -1.365  0.00  0.00     0.045 A 
ENDROOT
TORSDOF 0
ENDMDL
