MODEL 1
REMARK minimizedAffinity -4.79428434
REMARK minimizedRMSD -1
REMARK  0 active torsions:
REMARK  status: ('A' for Active; 'I' for Inactive)
ROOT
ATOM      1  C   UNL d   1      -3.286  -0.431  -0.288  0.00  0.00    -0.002 A 
ATOM      2  C1  UNL d   1      -2.851  -1.017   0.892  0.00  0.00     0.010 A 
ATOM      3  C2  UNL d   1      -1.489  -1.090   1.189  0.00  0.00     0.041 A 
ATOM      4  C3  UNL d   1      -0.562  -0.557   0.272  0.00  0.00    -0.075 A 
ATOM      5  S   UNL d   1       1.155  -0.533   0.424  0.00  0.00     0.015 SA
ATOM      6  C4  UNL d   1       1.352   0.257  -1.073  0.00  0.00     0.022 A 
ATOM      7  C5  UNL d   1       0.147   0.504  -1.688  0.00  0.00     0.026 A 
ATOM      8  C6  UNL d   1      -0.976   0.039  -0.923  0.00  0.00    -0.082 A 
ATOM      9  C7  UNL d   1      -2.364   0.097  -1.195  0.00  0.00     0.045 A 
ENDROOT
TORSDOF 0
ENDMDL
