MODEL 1
REMARK minimizedAffinity -3.61617374
REMARK minimizedRMSD -1
REMARK  0 active torsions:
REMARK  status: ('A' for Active; 'I' for Inactive)
ROOT
ATOM      1  C   UNL d   1      -3.047  -1.812  -0.020  0.00  0.00    -0.002 A 
ATOM      2  C1  UNL d   1      -2.412  -2.178   1.159  0.00  0.00     0.010 A 
ATOM      3  C2  UNL d   1      -1.160  -1.652   1.484  0.00  0.00     0.041 A 
ATOM      4  C3  UNL d   1      -0.552  -0.742   0.597  0.00  0.00    -0.075 A 
ATOM      5  S   UNL d   1       0.977   0.031   0.788  0.00  0.00     0.015 SA
ATOM      6  C4  UNL d   1       0.823   0.866  -0.690  0.00  0.00     0.022 A 
ATOM      7  C5  UNL d   1      -0.359   0.574  -1.326  0.00  0.00     0.026 A 
ATOM      8  C6  UNL d   1      -1.172  -0.358  -0.595  0.00  0.00    -0.082 A 
ATOM      9  C7  UNL d   1      -2.440  -0.909  -0.897  0.00  0.00     0.045 A 
ENDROOT
TORSDOF 0
ENDMDL
