MODEL 1
REMARK minimizedAffinity -4.86194468
REMARK minimizedRMSD -1
REMARK  0 active torsions:
REMARK  status: ('A' for Active; 'I' for Inactive)
ROOT
ATOM      1  C   UNL d   1      -2.708  -1.018  -1.666  0.00  0.00    -0.002 A 
ATOM      2  C1  UNL d   1      -3.102  -1.847  -0.625  0.00  0.00     0.010 A 
ATOM      3  C2  UNL d   1      -2.221  -2.149   0.415  0.00  0.00     0.041 A 
ATOM      4  C3  UNL d   1      -0.925  -1.597   0.392  0.00  0.00    -0.075 A 
ATOM      5  S   UNL d   1       0.324  -1.827   1.558  0.00  0.00     0.015 SA
ATOM      6  C4  UNL d   1       1.410  -0.830   0.702  0.00  0.00     0.022 A 
ATOM      7  C5  UNL d   1       0.849  -0.326  -0.448  0.00  0.00     0.026 A 
ATOM      8  C6  UNL d   1      -0.505  -0.759  -0.645  0.00  0.00    -0.082 A 
ATOM      9  C7  UNL d   1      -1.422  -0.472  -1.685  0.00  0.00     0.045 A 
ENDROOT
TORSDOF 0
ENDMDL
