MODEL 1
REMARK minimizedAffinity -2.8208158
REMARK minimizedRMSD -1
REMARK  0 active torsions:
REMARK  status: ('A' for Active; 'I' for Inactive)
ROOT
ATOM      1  C   UNL d   1       4.610   3.427  -3.153  0.00  0.00    -0.002 A 
ATOM      2  C1  UNL d   1       4.706   4.681  -2.566  0.00  0.00     0.010 A 
ATOM      3  C2  UNL d   1       4.107   4.934  -1.331  0.00  0.00     0.041 A 
ATOM      4  C3  UNL d   1       3.403   3.896  -0.689  0.00  0.00    -0.075 A 
ATOM      5  S   UNL d   1       2.589   3.976   0.829  0.00  0.00     0.015 SA
ATOM      6  C4  UNL d   1       2.095   2.347   0.734  0.00  0.00     0.022 A 
ATOM      7  C5  UNL d   1       2.532   1.743  -0.421  0.00  0.00     0.026 A 
ATOM      8  C6  UNL d   1       3.293   2.625  -1.260  0.00  0.00    -0.082 A 
ATOM      9  C7  UNL d   1       3.912   2.400  -2.513  0.00  0.00     0.045 A 
ENDROOT
TORSDOF 0
ENDMDL
