MODEL 1
REMARK minimizedAffinity -1.57750249
REMARK minimizedRMSD -1
REMARK  0 active torsions:
REMARK  status: ('A' for Active; 'I' for Inactive)
ROOT
ATOM      1  C   UNL d   1       5.179   3.183  -2.305  0.00  0.00    -0.002 A 
ATOM      2  C1  UNL d   1       4.930   4.495  -1.926  0.00  0.00     0.010 A 
ATOM      3  C2  UNL d   1       4.007   4.781  -0.919  0.00  0.00     0.041 A 
ATOM      4  C3  UNL d   1       3.332   3.716  -0.291  0.00  0.00    -0.075 A 
ATOM      5  S   UNL d   1       2.159   3.826   0.968  0.00  0.00     0.015 SA
ATOM      6  C4  UNL d   1       1.962   2.134   1.034  0.00  0.00     0.022 A 
ATOM      7  C5  UNL d   1       2.763   1.486   0.125  0.00  0.00     0.026 A 
ATOM      8  C6  UNL d   1       3.566   2.386  -0.654  0.00  0.00    -0.082 A 
ATOM      9  C7  UNL d   1       4.508   2.129  -1.679  0.00  0.00     0.045 A 
ENDROOT
TORSDOF 0
ENDMDL
