MODEL 1
REMARK minimizedAffinity -3.16184235
REMARK minimizedRMSD -1
REMARK  0 active torsions:
REMARK  status: ('A' for Active; 'I' for Inactive)
ROOT
ATOM      1  C   UNL d   1      -1.258  -0.080  -2.173  0.00  0.00    -0.002 A 
ATOM      2  C1  UNL d   1      -0.002   0.302  -1.722  0.00  0.00     0.010 A 
ATOM      3  C2  UNL d   1       0.594  -0.353  -0.642  0.00  0.00     0.041 A 
ATOM      4  C3  UNL d   1      -0.099  -1.409  -0.019  0.00  0.00    -0.075 A 
ATOM      5  S   UNL d   1       0.435  -2.357   1.319  0.00  0.00     0.015 SA
ATOM      6  C4  UNL d   1      -0.990  -3.291   1.322  0.00  0.00     0.022 A 
ATOM      7  C5  UNL d   1      -1.863  -2.903   0.334  0.00  0.00     0.026 A 
ATOM      8  C6  UNL d   1      -1.364  -1.813  -0.456  0.00  0.00    -0.082 A 
ATOM      9  C7  UNL d   1      -1.942  -1.128  -1.552  0.00  0.00     0.045 A 
ENDROOT
TORSDOF 0
ENDMDL
