MODEL 1
REMARK minimizedAffinity -2.27805018
REMARK minimizedRMSD -1
REMARK  0 active torsions:
REMARK  status: ('A' for Active; 'I' for Inactive)
ROOT
ATOM      1  C   UNL d   1      -0.012  -0.483  -0.861  0.00  0.00    -0.002 A 
ATOM      2  C1  UNL d   1       0.536  -0.935   0.331  0.00  0.00     0.010 A 
ATOM      3  C2  UNL d   1       1.443  -0.144   1.040  0.00  0.00     0.041 A 
ATOM      4  C3  UNL d   1       1.791   1.120   0.527  0.00  0.00    -0.075 A 
ATOM      5  S   UNL d   1       2.880   2.261   1.224  0.00  0.00     0.015 SA
ATOM      6  C4  UNL d   1       2.643   3.375  -0.044  0.00  0.00     0.022 A 
ATOM      7  C5  UNL d   1       1.758   2.904  -0.985  0.00  0.00     0.026 A 
ATOM      8  C6  UNL d   1       1.252   1.597  -0.671  0.00  0.00    -0.082 A 
ATOM      9  C7  UNL d   1       0.336   0.772  -1.367  0.00  0.00     0.045 A 
ENDROOT
TORSDOF 0
ENDMDL
