MODEL 1
REMARK minimizedAffinity 1.73353076
REMARK minimizedRMSD -1
REMARK  1 active torsions:
REMARK  status: ('A' for Active; 'I' for Inactive)
REMARK    1  A    between atoms: C1_2  and  C2_3 
ROOT
ATOM      1  C2  UNL d   1      -1.872  -1.236  -1.874  0.00  0.00    -0.077 A 
ATOM      2  C3  UNL d   1      -0.787  -1.622  -2.674  0.00  0.00     0.002 A 
ATOM      3  C4  UNL d   1       0.407  -2.046  -2.086  0.00  0.00     0.002 A 
ATOM      4  C5  UNL d   1       0.526  -2.091  -0.699  0.00  0.00    -0.004 A 
ATOM      5  C6  UNL d   1      -0.547  -1.706   0.104  0.00  0.00     0.002 A 
ATOM      6  C7  UNL d   1      -1.741  -1.281  -0.481  0.00  0.00     0.002 A 
ENDROOT
BRANCH   1   7
ATOM      7  C1  UNL d   1      -3.177  -0.825  -2.505  0.00  0.00     0.055 C 
ATOM      8  C   UNL d   1      -3.307   0.689  -2.572  0.00  0.00     0.019 C 
ENDBRANCH   1   7
TORSDOF 1
ENDMDL
