MODEL 1
REMARK minimizedAffinity 8.4094696
REMARK minimizedRMSD -1
REMARK  1 active torsions:
REMARK  status: ('A' for Active; 'I' for Inactive)
REMARK    1  A    between atoms: C1_2  and  C2_3 
ROOT
ATOM      1  C2  UNL d   1       2.011  -0.891   2.524  0.00  0.00    -0.077 A 
ATOM      2  C3  UNL d   1       2.078  -1.952   3.438  0.00  0.00     0.002 A 
ATOM      3  C4  UNL d   1       1.257  -3.071   3.281  0.00  0.00     0.002 A 
ATOM      4  C5  UNL d   1       0.369  -3.141   2.211  0.00  0.00    -0.004 A 
ATOM      5  C6  UNL d   1       0.294  -2.090   1.298  0.00  0.00     0.002 A 
ATOM      6  C7  UNL d   1       1.112  -0.970   1.453  0.00  0.00     0.002 A 
ENDROOT
BRANCH   1   7
ATOM      7  C1  UNL d   1       2.930   0.295   2.663  0.00  0.00     0.055 C 
ATOM      8  C   UNL d   1       3.233   0.592   4.124  0.00  0.00     0.019 C 
ENDBRANCH   1   7
TORSDOF 1
ENDMDL
