MODEL 1
REMARK minimizedAffinity -1.80105841
REMARK minimizedRMSD -1
REMARK  1 active torsions:
REMARK  status: ('A' for Active; 'I' for Inactive)
REMARK    1  A    between atoms: C1_2  and  C2_3 
ROOT
ATOM      1  C2  UNL d   1       1.477   3.829  -0.647  0.00  0.00    -0.077 A 
ATOM      2  C3  UNL d   1       2.580   2.970  -0.543  0.00  0.00     0.002 A 
ATOM      3  C4  UNL d   1       2.485   1.783   0.188  0.00  0.00     0.002 A 
ATOM      4  C5  UNL d   1       1.288   1.444   0.815  0.00  0.00    -0.004 A 
ATOM      5  C6  UNL d   1       0.186   2.293   0.719  0.00  0.00     0.002 A 
ATOM      6  C7  UNL d   1       0.280   3.479  -0.010  0.00  0.00     0.002 A 
ENDROOT
BRANCH   1   7
ATOM      7  C1  UNL d   1       1.563   5.084  -1.475  0.00  0.00     0.055 C 
ATOM      8  C   UNL d   1       2.982   5.635  -1.500  0.00  0.00     0.019 C 
ENDBRANCH   1   7
TORSDOF 1
ENDMDL
