MODEL 1
REMARK minimizedAffinity 6.24468756
REMARK minimizedRMSD -1
REMARK  1 active torsions:
REMARK  status: ('A' for Active; 'I' for Inactive)
REMARK    1  A    between atoms: C1_2  and  C2_3 
ROOT
ATOM      1  C2  UNL d   1       1.229   0.738   0.920  0.00  0.00    -0.077 A 
ATOM      2  C3  UNL d   1       1.238  -0.659   1.044  0.00  0.00     0.002 A 
ATOM      3  C4  UNL d   1       0.039  -1.374   1.068  0.00  0.00     0.002 A 
ATOM      4  C5  UNL d   1      -1.177  -0.701   0.964  0.00  0.00    -0.004 A 
ATOM      5  C6  UNL d   1      -1.197   0.688   0.842  0.00  0.00     0.002 A 
ATOM      6  C7  UNL d   1       0.000   1.404   0.820  0.00  0.00     0.002 A 
ENDROOT
BRANCH   1   7
ATOM      7  C1  UNL d   1       2.522   1.506   0.845  0.00  0.00     0.055 C 
ATOM      8  C   UNL d   1       2.556   2.414  -0.375  0.00  0.00     0.019 C 
ENDBRANCH   1   7
TORSDOF 1
ENDMDL
