MODEL 1
REMARK minimizedAffinity 3.70391822
REMARK minimizedRMSD -1
REMARK  1 active torsions:
REMARK  status: ('A' for Active; 'I' for Inactive)
REMARK    1  A    between atoms: C1_2  and  C2_3 
ROOT
ATOM      1  C2  UNL d   1      -4.493   1.906   0.685  0.00  0.00    -0.077 A 
ATOM      2  C3  UNL d   1      -4.498   3.040  -0.139  0.00  0.00     0.002 A 
ATOM      3  C4  UNL d   1      -5.248   3.054  -1.317  0.00  0.00     0.002 A 
ATOM      4  C5  UNL d   1      -6.000   1.938  -1.679  0.00  0.00    -0.004 A 
ATOM      5  C6  UNL d   1      -6.000   0.805  -0.867  0.00  0.00     0.002 A 
ATOM      6  C7  UNL d   1      -5.251   0.789   0.310  0.00  0.00     0.002 A 
ENDROOT
BRANCH   1   7
ATOM      7  C1  UNL d   1      -3.725   1.908   1.981  0.00  0.00     0.055 C 
ATOM      8  C   UNL d   1      -2.426   1.125   1.855  0.00  0.00     0.019 C 
ENDBRANCH   1   7
TORSDOF 1
ENDMDL
