MODEL 1
REMARK minimizedAffinity -0.445665061
REMARK minimizedRMSD -1
REMARK  1 active torsions:
REMARK  status: ('A' for Active; 'I' for Inactive)
REMARK    1  A    between atoms: C1_2  and  C2_3 
ROOT
ATOM      1  C2  UNL d   1       1.573  -0.573   2.721  0.00  0.00    -0.077 A 
ATOM      2  C3  UNL d   1       0.945  -0.078   1.570  0.00  0.00     0.002 A 
ATOM      3  C4  UNL d   1       0.155  -0.917   0.781  0.00  0.00     0.002 A 
ATOM      4  C5  UNL d   1      -0.017  -2.253   1.137  0.00  0.00    -0.004 A 
ATOM      5  C6  UNL d   1       0.605  -2.755   2.279  0.00  0.00     0.002 A 
ATOM      6  C7  UNL d   1       1.396  -1.919   3.068  0.00  0.00     0.002 A 
ENDROOT
BRANCH   1   7
ATOM      7  C1  UNL d   1       2.385   0.341   3.601  0.00  0.00     0.055 C 
ATOM      8  C   UNL d   1       2.118   1.804   3.275  0.00  0.00     0.019 C 
ENDBRANCH   1   7
TORSDOF 1
ENDMDL
