MODEL 1
REMARK minimizedAffinity -5.10211945
REMARK minimizedRMSD -1
REMARK  0 active torsions:
REMARK  status: ('A' for Active; 'I' for Inactive)
ROOT
ATOM      1  C   UNL d   1       0.263  -0.991  -1.377  0.00  0.00     0.078 C 
ATOM      2  C1  UNL d   1      -0.243  -0.106  -0.277  0.00  0.00    -0.077 A 
ATOM      3  C2  UNL d   1       0.108  -0.343   1.057  0.00  0.00    -0.001 A 
ATOM      4  C3  UNL d   1      -0.378   0.483   2.072  0.00  0.00     0.003 A 
ATOM      5  C4  UNL d   1      -1.218   1.551   1.763  0.00  0.00    -0.005 A 
ATOM      6  C5  UNL d   1      -1.575   1.793   0.438  0.00  0.00     0.003 A 
ATOM      7  C6  UNL d   1      -1.090   0.968  -0.578  0.00  0.00    -0.001 A 
ENDROOT
TORSDOF 0
ENDMDL
