MODEL 1
REMARK minimizedAffinity -5.46305704
REMARK minimizedRMSD -1
REMARK  0 active torsions:
REMARK  status: ('A' for Active; 'I' for Inactive)
ROOT
ATOM      1  C   UNL d   1      -2.281   2.275   1.000  0.00  0.00     0.078 C 
ATOM      2  C1  UNL d   1      -1.182   1.287   0.747  0.00  0.00    -0.077 A 
ATOM      3  C2  UNL d   1      -0.515   1.249  -0.483  0.00  0.00    -0.001 A 
ATOM      4  C3  UNL d   1       0.499   0.317  -0.708  0.00  0.00     0.003 A 
ATOM      5  C4  UNL d   1       0.855  -0.585   0.294  0.00  0.00    -0.005 A 
ATOM      6  C5  UNL d   1       0.196  -0.556   1.521  0.00  0.00     0.003 A 
ATOM      7  C6  UNL d   1      -0.819   0.376   1.747  0.00  0.00    -0.001 A 
ENDROOT
TORSDOF 0
ENDMDL
