MODEL 1
REMARK minimizedAffinity -5.28785419
REMARK minimizedRMSD -1
REMARK  0 active torsions:
REMARK  status: ('A' for Active; 'I' for Inactive)
ROOT
ATOM      1  C   UNL d   1       0.708  -1.060  -0.952  0.00  0.00     0.078 C 
ATOM      2  C1  UNL d   1      -0.064  -0.121  -0.074  0.00  0.00    -0.077 A 
ATOM      3  C2  UNL d   1      -0.716   0.996  -0.610  0.00  0.00    -0.001 A 
ATOM      4  C3  UNL d   1      -1.424   1.866   0.221  0.00  0.00     0.003 A 
ATOM      5  C4  UNL d   1      -1.485   1.629   1.593  0.00  0.00    -0.005 A 
ATOM      6  C5  UNL d   1      -0.838   0.521   2.135  0.00  0.00     0.003 A 
ATOM      7  C6  UNL d   1      -0.130  -0.351   1.306  0.00  0.00    -0.001 A 
ENDROOT
TORSDOF 0
ENDMDL
