MODEL 1
REMARK minimizedAffinity -4.89327812
REMARK minimizedRMSD -1
REMARK  0 active torsions:
REMARK  status: ('A' for Active; 'I' for Inactive)
ROOT
ATOM      1  C   UNL d   1      -1.080   3.312  -1.402  0.00  0.00     0.078 C 
ATOM      2  C1  UNL d   1      -0.893   2.318  -0.295  0.00  0.00    -0.077 A 
ATOM      3  C2  UNL d   1      -1.216   2.643   1.029  0.00  0.00    -0.001 A 
ATOM      4  C3  UNL d   1      -1.027   1.712   2.051  0.00  0.00     0.003 A 
ATOM      5  C4  UNL d   1      -0.513   0.449   1.761  0.00  0.00    -0.005 A 
ATOM      6  C5  UNL d   1      -0.187   0.118   0.447  0.00  0.00     0.003 A 
ATOM      7  C6  UNL d   1      -0.375   1.048  -0.576  0.00  0.00    -0.001 A 
ENDROOT
TORSDOF 0
ENDMDL
