MODEL 1
REMARK minimizedAffinity -5.61478281
REMARK minimizedRMSD -1
REMARK  0 active torsions:
REMARK  status: ('A' for Active; 'I' for Inactive)
ROOT
ATOM      1  C   UNL d   1      -2.047   1.954   1.061  0.00  0.00     0.078 C 
ATOM      2  C1  UNL d   1      -0.871   1.402   0.312  0.00  0.00    -0.077 A 
ATOM      3  C2  UNL d   1      -0.323   0.158   0.646  0.00  0.00    -0.001 A 
ATOM      4  C3  UNL d   1       0.778  -0.340  -0.054  0.00  0.00     0.003 A 
ATOM      5  C4  UNL d   1       1.340   0.401  -1.092  0.00  0.00    -0.005 A 
ATOM      6  C5  UNL d   1       0.802   1.641  -1.430  0.00  0.00     0.003 A 
ATOM      7  C6  UNL d   1      -0.298   2.140  -0.732  0.00  0.00    -0.001 A 
ENDROOT
TORSDOF 0
ENDMDL
