MODEL 1
REMARK minimizedAffinity -4.39456511
REMARK minimizedRMSD -1
REMARK  0 active torsions:
REMARK  status: ('A' for Active; 'I' for Inactive)
ROOT
ATOM      1  C   UNL d   1      -0.142  -0.811  -1.418  0.00  0.00     0.078 C 
ATOM      2  C1  UNL d   1      -0.274  -0.284  -0.020  0.00  0.00    -0.077 A 
ATOM      3  C2  UNL d   1      -1.135   0.781   0.272  0.00  0.00    -0.001 A 
ATOM      4  C3  UNL d   1      -1.240   1.267   1.576  0.00  0.00     0.003 A 
ATOM      5  C4  UNL d   1      -0.486   0.695   2.599  0.00  0.00    -0.005 A 
ATOM      6  C5  UNL d   1       0.375  -0.364   2.318  0.00  0.00     0.003 A 
ATOM      7  C6  UNL d   1       0.482  -0.851   1.014  0.00  0.00    -0.001 A 
ENDROOT
TORSDOF 0
ENDMDL
