MODEL 1
REMARK minimizedAffinity -5.11625814
REMARK minimizedRMSD -1
REMARK  0 active torsions:
REMARK  status: ('A' for Active; 'I' for Inactive)
ROOT
ATOM      1  C   UNL d   1       0.545  -0.822  -0.674  0.00  0.00     0.078 C 
ATOM      2  C1  UNL d   1      -0.252   0.197   0.085  0.00  0.00    -0.077 A 
ATOM      3  C2  UNL d   1      -1.304   0.891  -0.526  0.00  0.00    -0.001 A 
ATOM      4  C3  UNL d   1      -2.031   1.843   0.189  0.00  0.00     0.003 A 
ATOM      5  C4  UNL d   1      -1.714   2.111   1.519  0.00  0.00    -0.005 A 
ATOM      6  C5  UNL d   1      -0.668   1.427   2.135  0.00  0.00     0.003 A 
ATOM      7  C6  UNL d   1       0.060   0.474   1.421  0.00  0.00    -0.001 A 
ENDROOT
TORSDOF 0
ENDMDL
