MODEL 1
REMARK minimizedAffinity -4.53965425
REMARK minimizedRMSD -1
REMARK  0 active torsions:
REMARK  status: ('A' for Active; 'I' for Inactive)
ROOT
ATOM      1  C   UNL d   1       1.289   0.010  -0.628  0.00  0.00     0.078 C 
ATOM      2  C1  UNL d   1       0.087   0.361   0.196  0.00  0.00    -0.077 A 
ATOM      3  C2  UNL d   1      -1.015   1.008  -0.375  0.00  0.00    -0.001 A 
ATOM      4  C3  UNL d   1      -2.123   1.338   0.407  0.00  0.00     0.003 A 
ATOM      5  C4  UNL d   1      -2.139   1.027   1.765  0.00  0.00    -0.005 A 
ATOM      6  C5  UNL d   1      -1.046   0.385   2.343  0.00  0.00     0.003 A 
ATOM      7  C6  UNL d   1       0.063   0.054   1.563  0.00  0.00    -0.001 A 
ENDROOT
TORSDOF 0
ENDMDL
