MODEL 1
REMARK minimizedAffinity -5.2016964
REMARK minimizedRMSD -1
REMARK  0 active torsions:
REMARK  status: ('A' for Active; 'I' for Inactive)
ROOT
ATOM      1  C   UNL d   1       0.382  -1.067  -0.191  0.00  0.00     0.078 C 
ATOM      2  C1  UNL d   1      -0.278   0.043   0.572  0.00  0.00    -0.077 A 
ATOM      3  C2  UNL d   1      -1.256   0.847  -0.026  0.00  0.00    -0.001 A 
ATOM      4  C3  UNL d   1      -1.855   1.883   0.693  0.00  0.00     0.003 A 
ATOM      5  C4  UNL d   1      -1.481   2.125   2.013  0.00  0.00    -0.005 A 
ATOM      6  C5  UNL d   1      -0.506   1.332   2.616  0.00  0.00     0.003 A 
ATOM      7  C6  UNL d   1       0.093   0.296   1.899  0.00  0.00    -0.001 A 
ENDROOT
TORSDOF 0
ENDMDL
