MODEL 1
REMARK minimizedAffinity -5.42163229
REMARK minimizedRMSD -1
REMARK  0 active torsions:
REMARK  status: ('A' for Active; 'I' for Inactive)
ROOT
ATOM      1  C   UNL d   1       1.112  -0.096  -0.851  0.00  0.00     0.078 C 
ATOM      2  C1  UNL d   1       0.026   0.298   0.105  0.00  0.00    -0.077 A 
ATOM      3  C2  UNL d   1      -1.015   1.145  -0.295  0.00  0.00    -0.001 A 
ATOM      4  C3  UNL d   1      -2.014   1.511   0.608  0.00  0.00     0.003 A 
ATOM      5  C4  UNL d   1      -1.982   1.036   1.917  0.00  0.00    -0.005 A 
ATOM      6  C5  UNL d   1      -0.949   0.194   2.325  0.00  0.00     0.003 A 
ATOM      7  C6  UNL d   1       0.051  -0.173   1.424  0.00  0.00    -0.001 A 
ENDROOT
TORSDOF 0
ENDMDL
