MODEL 1
REMARK minimizedAffinity -3.2919383
REMARK minimizedRMSD -1
REMARK  0 active torsions:
REMARK  status: ('A' for Active; 'I' for Inactive)
ROOT
ATOM      1  C   UNL d   1      -2.382   2.146   0.816  0.00  0.00     0.078 C 
ATOM      2  C1  UNL d   1      -1.298   1.113   0.731  0.00  0.00    -0.077 A 
ATOM      3  C2  UNL d   1      -0.780   0.711  -0.506  0.00  0.00    -0.001 A 
ATOM      4  C3  UNL d   1       0.222  -0.259  -0.570  0.00  0.00     0.003 A 
ATOM      5  C4  UNL d   1       0.714  -0.835   0.599  0.00  0.00    -0.005 A 
ATOM      6  C5  UNL d   1       0.203  -0.443   1.835  0.00  0.00     0.003 A 
ATOM      7  C6  UNL d   1      -0.799   0.526   1.901  0.00  0.00    -0.001 A 
ENDROOT
TORSDOF 0
ENDMDL
