MODEL 1
REMARK minimizedAffinity -3.84092426
REMARK minimizedRMSD -1
REMARK  0 active torsions:
REMARK  status: ('A' for Active; 'I' for Inactive)
ROOT
ATOM      1  C   UNL d   1       0.911  -0.924  -0.511  0.00  0.00     0.078 C 
ATOM      2  C1  UNL d   1       0.771  -1.964  -1.582  0.00  0.00    -0.077 A 
ATOM      3  C2  UNL d   1       1.331  -3.238  -1.428  0.00  0.00    -0.001 A 
ATOM      4  C3  UNL d   1       1.201  -4.194  -2.437  0.00  0.00     0.003 A 
ATOM      5  C4  UNL d   1       0.512  -3.885  -3.608  0.00  0.00    -0.005 A 
ATOM      6  C5  UNL d   1      -0.046  -2.619  -3.772  0.00  0.00     0.003 A 
ATOM      7  C6  UNL d   1       0.083  -1.662  -2.764  0.00  0.00    -0.001 A 
ENDROOT
TORSDOF 0
ENDMDL
