MODEL 1
REMARK minimizedAffinity 0.822698772
REMARK minimizedRMSD -1
REMARK  0 active torsions:
REMARK  status: ('A' for Active; 'I' for Inactive)
ROOT
ATOM      1  C   UNL d   1       1.055   0.618  -0.270  0.00  0.00     0.124 A 
ATOM      2  C1  UNL d   1       0.982   1.093  -1.573  0.00  0.00     0.062 A 
ATOM      3  C2  UNL d   1       1.112   2.454  -1.830  0.00  0.00     0.162 A 
ATOM      4  C3  UNL d   1       1.317   3.352  -0.782  0.00  0.00    -0.034 A 
ATOM      5  C4  UNL d   1       1.388   2.867   0.526  0.00  0.00     0.162 A 
ATOM      6  C5  UNL d   1       1.257   1.505   0.777  0.00  0.00     0.062 A 
ATOM      7  F   UNL d   1       1.327   1.049   2.036  0.00  0.00    -0.097 F 
ATOM      8  F1  UNL d   1       1.583   3.703   1.557  0.00  0.00    -0.096 F 
ATOM      9  I   UNL d   1       1.512   5.389  -1.162  0.00  0.00    -0.060 I 
ATOM     10  F2  UNL d   1       1.038   2.885  -3.098  0.00  0.00    -0.096 F 
ATOM     11  F3  UNL d   1       0.786   0.237  -2.586  0.00  0.00    -0.097 F 
ATOM     12  F4  UNL d   1       0.928  -0.693  -0.026  0.00  0.00    -0.092 F 
ENDROOT
TORSDOF 0
ENDMDL
