MODEL 1
REMARK minimizedAffinity 0.164225951
REMARK minimizedRMSD -1
REMARK  0 active torsions:
REMARK  status: ('A' for Active; 'I' for Inactive)
ROOT
ATOM      1  C   UNL d   1       1.237   0.624  -0.073  0.00  0.00     0.124 A 
ATOM      2  C1  UNL d   1       1.292   1.524   0.983  0.00  0.00     0.062 A 
ATOM      3  C2  UNL d   1       1.441   2.885   0.736  0.00  0.00     0.162 A 
ATOM      4  C3  UNL d   1       1.534   3.357  -0.574  0.00  0.00    -0.034 A 
ATOM      5  C4  UNL d   1       1.478   2.446  -1.630  0.00  0.00     0.162 A 
ATOM      6  C5  UNL d   1       1.330   1.086  -1.378  0.00  0.00     0.062 A 
ATOM      7  F   UNL d   1       1.276   0.219  -2.399  0.00  0.00    -0.097 F 
ATOM      8  F1  UNL d   1       1.565   2.865  -2.902  0.00  0.00    -0.096 F 
ATOM      9  I   UNL d   1       1.756   5.392  -0.948  0.00  0.00    -0.060 I 
ATOM     10  F2  UNL d   1       1.491   3.731   1.775  0.00  0.00    -0.096 F 
ATOM     11  F3  UNL d   1       1.203   1.080   2.245  0.00  0.00    -0.097 F 
ATOM     12  F4  UNL d   1       1.095  -0.685   0.168  0.00  0.00    -0.092 F 
ENDROOT
TORSDOF 0
ENDMDL
