MODEL 1
REMARK minimizedAffinity 3.72921538
REMARK minimizedRMSD -1
REMARK  0 active torsions:
REMARK  status: ('A' for Active; 'I' for Inactive)
ROOT
ATOM      1  C   UNL d   1       1.282   2.249  -1.573  0.00  0.00     0.124 A 
ATOM      2  C1  UNL d   1       1.319   3.234  -0.596  0.00  0.00     0.062 A 
ATOM      3  C2  UNL d   1       1.445   2.884   0.745  0.00  0.00     0.162 A 
ATOM      4  C3  UNL d   1       1.536   1.543   1.118  0.00  0.00    -0.034 A 
ATOM      5  C4  UNL d   1       1.497   0.558   0.129  0.00  0.00     0.162 A 
ATOM      6  C5  UNL d   1       1.370   0.912  -1.210  0.00  0.00     0.062 A 
ATOM      7  F   UNL d   1       1.334  -0.041  -2.153  0.00  0.00    -0.097 F 
ATOM      8  F1  UNL d   1       1.581  -0.741   0.452  0.00  0.00    -0.096 F 
ATOM      9  I   UNL d   1       1.724   1.017   3.122  0.00  0.00    -0.060 I 
ATOM     10  F2  UNL d   1       1.479   3.857   1.668  0.00  0.00    -0.096 F 
ATOM     11  F3  UNL d   1       1.233   4.525  -0.944  0.00  0.00    -0.097 F 
ATOM     12  F4  UNL d   1       1.160   2.588  -2.863  0.00  0.00    -0.092 F 
ENDROOT
TORSDOF 0
ENDMDL
