MODEL 1
REMARK minimizedAffinity 2.96229386
REMARK minimizedRMSD -1
REMARK  0 active torsions:
REMARK  status: ('A' for Active; 'I' for Inactive)
ROOT
ATOM      1  C   UNL d   1       1.085   0.395  -0.154  0.00  0.00     0.124 A 
ATOM      2  C1  UNL d   1       0.887   1.264   0.910  0.00  0.00     0.062 A 
ATOM      3  C2  UNL d   1       0.969   2.640   0.715  0.00  0.00     0.162 A 
ATOM      4  C3  UNL d   1       1.249   3.155  -0.551  0.00  0.00    -0.034 A 
ATOM      5  C4  UNL d   1       1.448   2.275  -1.616  0.00  0.00     0.162 A 
ATOM      6  C5  UNL d   1       1.365   0.901  -1.415  0.00  0.00     0.062 A 
ATOM      7  F   UNL d   1       1.556   0.063  -2.445  0.00  0.00    -0.097 F 
ATOM      8  F1  UNL d   1       1.719   2.737  -2.845  0.00  0.00    -0.096 F 
ATOM      9  I   UNL d   1       1.372   5.212  -0.847  0.00  0.00    -0.060 I 
ATOM     10  F2  UNL d   1       0.773   3.456   1.761  0.00  0.00    -0.096 F 
ATOM     11  F3  UNL d   1       0.617   0.777   2.130  0.00  0.00    -0.097 F 
ATOM     12  F4  UNL d   1       1.006  -0.928   0.037  0.00  0.00    -0.092 F 
ENDROOT
TORSDOF 0
ENDMDL
