MODEL 1
REMARK minimizedAffinity 4.75150394
REMARK minimizedRMSD -1
REMARK  0 active torsions:
REMARK  status: ('A' for Active; 'I' for Inactive)
ROOT
ATOM      1  C   UNL d   1       0.802   3.299  -1.087  0.00  0.00     0.124 A 
ATOM      2  C1  UNL d   1       0.719   2.310  -2.058  0.00  0.00     0.062 A 
ATOM      3  C2  UNL d   1       1.109   1.007  -1.765  0.00  0.00     0.162 A 
ATOM      4  C3  UNL d   1       1.584   0.683  -0.494  0.00  0.00    -0.034 A 
ATOM      5  C4  UNL d   1       1.665   1.682   0.477  0.00  0.00     0.162 A 
ATOM      6  C5  UNL d   1       1.274   2.984   0.180  0.00  0.00     0.062 A 
ATOM      7  F   UNL d   1       1.355   3.937   1.119  0.00  0.00    -0.097 F 
ATOM      8  F1  UNL d   1       2.117   1.405   1.709  0.00  0.00    -0.096 F 
ATOM      9  I   UNL d   1       2.167  -1.266  -0.052  0.00  0.00    -0.060 I 
ATOM     10  F2  UNL d   1       1.018   0.072  -2.723  0.00  0.00    -0.096 F 
ATOM     11  F3  UNL d   1       0.264   2.612  -3.283  0.00  0.00    -0.097 F 
ATOM     12  F4  UNL d   1       0.428   4.552  -1.372  0.00  0.00    -0.092 F 
ENDROOT
TORSDOF 0
ENDMDL
