MODEL 1
REMARK minimizedAffinity 9.40322781
REMARK minimizedRMSD -1
REMARK  0 active torsions:
REMARK  status: ('A' for Active; 'I' for Inactive)
ROOT
ATOM      1  C   UNL d   1       1.316   0.618  -0.471  0.00  0.00     0.124 A 
ATOM      2  C1  UNL d   1       1.474   1.424   0.648  0.00  0.00     0.062 A 
ATOM      3  C2  UNL d   1       1.497   2.810   0.515  0.00  0.00     0.162 A 
ATOM      4  C3  UNL d   1       1.361   3.398  -0.742  0.00  0.00    -0.034 A 
ATOM      5  C4  UNL d   1       1.204   2.581  -1.863  0.00  0.00     0.162 A 
ATOM      6  C5  UNL d   1       1.182   1.197  -1.725  0.00  0.00     0.062 A 
ATOM      7  F   UNL d   1       1.030   0.419  -2.807  0.00  0.00    -0.097 F 
ATOM      8  F1  UNL d   1       1.071   3.114  -3.087  0.00  0.00    -0.096 F 
ATOM      9  I   UNL d   1       1.395   5.469  -0.946  0.00  0.00    -0.060 I 
ATOM     10  F2  UNL d   1       1.650   3.564   1.613  0.00  0.00    -0.096 F 
ATOM     11  F3  UNL d   1       1.605   0.868   1.861  0.00  0.00    -0.097 F 
ATOM     12  F4  UNL d   1       1.296  -0.715  -0.340  0.00  0.00    -0.092 F 
ENDROOT
TORSDOF 0
ENDMDL
