MODEL 1
REMARK minimizedAffinity 0.534766316
REMARK minimizedRMSD -1
REMARK  0 active torsions:
REMARK  status: ('A' for Active; 'I' for Inactive)
ROOT
ATOM      1  C   UNL d   1       1.080   0.218  -0.159  0.00  0.00     0.124 A 
ATOM      2  C1  UNL d   1       1.182   0.740  -1.441  0.00  0.00     0.062 A 
ATOM      3  C2  UNL d   1       1.425   2.098  -1.626  0.00  0.00     0.162 A 
ATOM      4  C3  UNL d   1       1.567   2.944  -0.527  0.00  0.00    -0.034 A 
ATOM      5  C4  UNL d   1       1.462   2.412   0.760  0.00  0.00     0.162 A 
ATOM      6  C5  UNL d   1       1.220   1.054   0.940  0.00  0.00     0.062 A 
ATOM      7  F   UNL d   1       1.121   0.551   2.179  0.00  0.00    -0.097 F 
ATOM      8  F1  UNL d   1       1.594   3.197   1.839  0.00  0.00    -0.096 F 
ATOM      9  I   UNL d   1       1.929   4.975  -0.800  0.00  0.00    -0.060 I 
ATOM     10  F2  UNL d   1       1.519   2.575  -2.876  0.00  0.00    -0.096 F 
ATOM     11  F3  UNL d   1       1.047  -0.066  -2.504  0.00  0.00    -0.097 F 
ATOM     12  F4  UNL d   1       0.846  -1.089   0.017  0.00  0.00    -0.092 F 
ENDROOT
TORSDOF 0
ENDMDL
