MODEL 1
REMARK minimizedAffinity 11.7843199
REMARK minimizedRMSD -1
REMARK  0 active torsions:
REMARK  status: ('A' for Active; 'I' for Inactive)
ROOT
ATOM      1  C   UNL d   1       1.933   4.770  -0.400  0.00  0.00     0.124 A 
ATOM      2  C1  UNL d   1       1.803   3.749   0.533  0.00  0.00     0.062 A 
ATOM      3  C2  UNL d   1       1.438   2.470   0.124  0.00  0.00     0.162 A 
ATOM      4  C3  UNL d   1       1.200   2.203  -1.224  0.00  0.00    -0.034 A 
ATOM      5  C4  UNL d   1       1.332   3.234  -2.156  0.00  0.00     0.162 A 
ATOM      6  C5  UNL d   1       1.697   4.511  -1.743  0.00  0.00     0.062 A 
ATOM      7  F   UNL d   1       1.822   5.496  -2.645  0.00  0.00    -0.097 F 
ATOM      8  F1  UNL d   1       1.111   3.012  -3.460  0.00  0.00    -0.096 F 
ATOM      9  I   UNL d   1       0.654   0.291  -1.839  0.00  0.00    -0.060 I 
ATOM     10  F2  UNL d   1       1.320   1.504   1.046  0.00  0.00    -0.096 F 
ATOM     11  F3  UNL d   1       2.030   3.997   1.831  0.00  0.00    -0.097 F 
ATOM     12  F4  UNL d   1       2.284   6.000  -0.004  0.00  0.00    -0.092 F 
ENDROOT
TORSDOF 0
ENDMDL
