MODEL 1
REMARK minimizedAffinity 4.73484135
REMARK minimizedRMSD -1
REMARK  0 active torsions:
REMARK  status: ('A' for Active; 'I' for Inactive)
ROOT
ATOM      1  C   UNL d   1       1.529   0.597  -0.094  0.00  0.00     0.124 A 
ATOM      2  C1  UNL d   1       1.373   1.092  -1.381  0.00  0.00     0.062 A 
ATOM      3  C2  UNL d   1       1.374   2.466  -1.607  0.00  0.00     0.162 A 
ATOM      4  C3  UNL d   1       1.532   3.354  -0.543  0.00  0.00    -0.034 A 
ATOM      5  C4  UNL d   1       1.688   2.848   0.749  0.00  0.00     0.162 A 
ATOM      6  C5  UNL d   1       1.686   1.474   0.969  0.00  0.00     0.062 A 
ATOM      7  F   UNL d   1       1.837   0.997   2.213  0.00  0.00    -0.097 F 
ATOM      8  F1  UNL d   1       1.842   3.673   1.794  0.00  0.00    -0.096 F 
ATOM      9  I   UNL d   1       1.534   5.408  -0.877  0.00  0.00    -0.060 I 
ATOM     10  F2  UNL d   1       1.221   2.917  -2.861  0.00  0.00    -0.096 F 
ATOM     11  F3  UNL d   1       1.220   0.246  -2.410  0.00  0.00    -0.097 F 
ATOM     12  F4  UNL d   1       1.527  -0.725   0.121  0.00  0.00    -0.092 F 
ENDROOT
TORSDOF 0
ENDMDL
