MODEL 1
REMARK minimizedAffinity 0.415654629
REMARK minimizedRMSD -1
REMARK  0 active torsions:
REMARK  status: ('A' for Active; 'I' for Inactive)
ROOT
ATOM      1  C   UNL d   1       1.827   3.285   0.609  0.00  0.00     0.124 A 
ATOM      2  C1  UNL d   1       1.989   1.929   0.856  0.00  0.00     0.062 A 
ATOM      3  C2  UNL d   1       1.801   1.003  -0.167  0.00  0.00     0.162 A 
ATOM      4  C3  UNL d   1       1.448   1.431  -1.447  0.00  0.00    -0.034 A 
ATOM      5  C4  UNL d   1       1.285   2.797  -1.687  0.00  0.00     0.162 A 
ATOM      6  C5  UNL d   1       1.475   3.718  -0.662  0.00  0.00     0.062 A 
ATOM      7  F   UNL d   1       1.317   5.027  -0.902  0.00  0.00    -0.097 F 
ATOM      8  F1  UNL d   1       0.946   3.243  -2.906  0.00  0.00    -0.096 F 
ATOM      9  I   UNL d   1       1.165   0.051  -2.979  0.00  0.00    -0.060 I 
ATOM     10  F2  UNL d   1       1.965  -0.301   0.100  0.00  0.00    -0.096 F 
ATOM     11  F3  UNL d   1       2.328   1.508   2.083  0.00  0.00    -0.097 F 
ATOM     12  F4  UNL d   1       2.008   4.173   1.595  0.00  0.00    -0.092 F 
ENDROOT
TORSDOF 0
ENDMDL
