MODEL 1
REMARK minimizedAffinity 0.801997602
REMARK minimizedRMSD -1
REMARK  0 active torsions:
REMARK  status: ('A' for Active; 'I' for Inactive)
ROOT
ATOM      1  C   UNL d   1       0.857   0.110   0.115  0.00  0.00     0.124 A 
ATOM      2  C1  UNL d   1       0.936   0.544  -1.201  0.00  0.00     0.062 A 
ATOM      3  C2  UNL d   1       1.015   1.905  -1.485  0.00  0.00     0.162 A 
ATOM      4  C3  UNL d   1       1.015   2.841  -0.451  0.00  0.00    -0.034 A 
ATOM      5  C4  UNL d   1       0.934   2.396   0.870  0.00  0.00     0.162 A 
ATOM      6  C5  UNL d   1       0.856   1.035   1.149  0.00  0.00     0.062 A 
ATOM      7  F   UNL d   1       0.779   0.617   2.421  0.00  0.00    -0.097 F 
ATOM      8  F1  UNL d   1       0.932   3.269   1.888  0.00  0.00    -0.096 F 
ATOM      9  I   UNL d   1       1.132   4.876  -0.872  0.00  0.00    -0.060 I 
ATOM     10  F2  UNL d   1       1.090   2.296  -2.766  0.00  0.00    -0.096 F 
ATOM     11  F3  UNL d   1       0.936  -0.348  -2.201  0.00  0.00    -0.097 F 
ATOM     12  F4  UNL d   1       0.780  -1.200   0.386  0.00  0.00    -0.092 F 
ENDROOT
TORSDOF 0
ENDMDL
