MODEL 1
REMARK minimizedAffinity 5.32450533
REMARK minimizedRMSD -1
REMARK  0 active torsions:
REMARK  status: ('A' for Active; 'I' for Inactive)
ROOT
ATOM      1  C   UNL d   1       0.915   1.060  -0.398  0.00  0.00     0.124 A 
ATOM      2  C1  UNL d   1       1.129   1.941   0.653  0.00  0.00     0.062 A 
ATOM      3  C2  UNL d   1       1.350   3.292   0.400  0.00  0.00     0.162 A 
ATOM      4  C3  UNL d   1       1.358   3.770  -0.910  0.00  0.00    -0.034 A 
ATOM      5  C4  UNL d   1       1.144   2.878  -1.962  0.00  0.00     0.162 A 
ATOM      6  C5  UNL d   1       0.923   1.529  -1.704  0.00  0.00     0.062 A 
ATOM      7  F   UNL d   1       0.717   0.679  -2.721  0.00  0.00    -0.097 F 
ATOM      8  F1  UNL d   1       1.145   3.304  -3.234  0.00  0.00    -0.096 F 
ATOM      9  I   UNL d   1       1.688   5.789  -1.293  0.00  0.00    -0.060 I 
ATOM     10  F2  UNL d   1       1.553   4.121   1.435  0.00  0.00    -0.096 F 
ATOM     11  F3  UNL d   1       1.122   1.491   1.916  0.00  0.00    -0.097 F 
ATOM     12  F4  UNL d   1       0.703  -0.239  -0.152  0.00  0.00    -0.092 F 
ENDROOT
TORSDOF 0
ENDMDL
