MODEL 1
REMARK minimizedAffinity 7.39344263
REMARK minimizedRMSD -1
REMARK  0 active torsions:
REMARK  status: ('A' for Active; 'I' for Inactive)
ROOT
ATOM      1  C   UNL d   1       1.375   3.675  -0.324  0.00  0.00     0.124 A 
ATOM      2  C1  UNL d   1       1.632   3.134   0.928  0.00  0.00     0.062 A 
ATOM      3  C2  UNL d   1       2.203   1.870   1.041  0.00  0.00     0.162 A 
ATOM      4  C3  UNL d   1       2.523   1.138  -0.102  0.00  0.00    -0.034 A 
ATOM      5  C4  UNL d   1       2.261   1.688  -1.358  0.00  0.00     0.162 A 
ATOM      6  C5  UNL d   1       1.690   2.952  -1.466  0.00  0.00     0.062 A 
ATOM      7  F   UNL d   1       1.442   3.473  -2.676  0.00  0.00    -0.097 F 
ATOM      8  F1  UNL d   1       2.556   1.011  -2.478  0.00  0.00    -0.096 F 
ATOM      9  I   UNL d   1       3.378  -0.753   0.062  0.00  0.00    -0.060 I 
ATOM     10  F2  UNL d   1       2.440   1.372   2.264  0.00  0.00    -0.096 F 
ATOM     11  F3  UNL d   1       1.328   3.830   2.033  0.00  0.00    -0.097 F 
ATOM     12  F4  UNL d   1       0.824   4.891  -0.429  0.00  0.00    -0.092 F 
ENDROOT
TORSDOF 0
ENDMDL
