MODEL 1
REMARK minimizedAffinity 4.13391161
REMARK minimizedRMSD -1
REMARK  0 active torsions:
REMARK  status: ('A' for Active; 'I' for Inactive)
ROOT
ATOM      1  C   UNL d   1       1.256  -0.570  -2.497  0.00  0.00     0.124 A 
ATOM      2  C1  UNL d   1       1.088  -1.319  -1.340  0.00  0.00     0.062 A 
ATOM      3  C2  UNL d   1       1.146  -0.703  -0.093  0.00  0.00     0.162 A 
ATOM      4  C3  UNL d   1       1.372   0.670   0.004  0.00  0.00    -0.034 A 
ATOM      5  C4  UNL d   1       1.541   1.416  -1.164  0.00  0.00     0.162 A 
ATOM      6  C5  UNL d   1       1.482   0.796  -2.408  0.00  0.00     0.062 A 
ATOM      7  F   UNL d   1       1.645   1.521  -3.524  0.00  0.00    -0.097 F 
ATOM      8  F1  UNL d   1       1.760   2.738  -1.107  0.00  0.00    -0.096 F 
ATOM      9  I   UNL d   1       1.458   1.594   1.866  0.00  0.00    -0.060 I 
ATOM     10  F2  UNL d   1       0.980  -1.451   1.007  0.00  0.00    -0.096 F 
ATOM     11  F3  UNL d   1       0.871  -2.639  -1.424  0.00  0.00    -0.097 F 
ATOM     12  F4  UNL d   1       1.201  -1.165  -3.696  0.00  0.00    -0.092 F 
ENDROOT
TORSDOF 0
ENDMDL
