MODEL 1
REMARK minimizedAffinity 11.0983524
REMARK minimizedRMSD -1
REMARK  0 active torsions:
REMARK  status: ('A' for Active; 'I' for Inactive)
ROOT
ATOM      1  C   UNL d   1       1.683   0.660  -0.252  0.00  0.00     0.124 A 
ATOM      2  C1  UNL d   1       1.704   1.508   0.847  0.00  0.00     0.062 A 
ATOM      3  C2  UNL d   1       1.625   2.887   0.669  0.00  0.00     0.162 A 
ATOM      4  C3  UNL d   1       1.524   3.426  -0.613  0.00  0.00    -0.034 A 
ATOM      5  C4  UNL d   1       1.505   2.567  -1.713  0.00  0.00     0.162 A 
ATOM      6  C5  UNL d   1       1.584   1.190  -1.530  0.00  0.00     0.062 A 
ATOM      7  F   UNL d   1       1.564   0.373  -2.593  0.00  0.00    -0.097 F 
ATOM      8  F1  UNL d   1       1.409   3.052  -2.960  0.00  0.00    -0.096 F 
ATOM      9  I   UNL d   1       1.406   5.486  -0.883  0.00  0.00    -0.060 I 
ATOM     10  F2  UNL d   1       1.647   3.682   1.749  0.00  0.00    -0.096 F 
ATOM     11  F3  UNL d   1       1.801   0.999   2.083  0.00  0.00    -0.097 F 
ATOM     12  F4  UNL d   1       1.760  -0.665  -0.078  0.00  0.00    -0.092 F 
ENDROOT
TORSDOF 0
ENDMDL
