MODEL 1
REMARK minimizedAffinity 7.97006702
REMARK minimizedRMSD -1
REMARK  0 active torsions:
REMARK  status: ('A' for Active; 'I' for Inactive)
ROOT
ATOM      1  C   UNL d   1       1.428   0.232  -1.924  0.00  0.00     0.124 A 
ATOM      2  C1  UNL d   1       1.041   1.547  -2.143  0.00  0.00     0.062 A 
ATOM      3  C2  UNL d   1       1.106   2.477  -1.110  0.00  0.00     0.162 A 
ATOM      4  C3  UNL d   1       1.559   2.096   0.153  0.00  0.00    -0.034 A 
ATOM      5  C4  UNL d   1       1.945   0.771   0.367  0.00  0.00     0.162 A 
ATOM      6  C5  UNL d   1       1.879  -0.154  -0.670  0.00  0.00     0.062 A 
ATOM      7  F   UNL d   1       2.252  -1.424  -0.456  0.00  0.00    -0.097 F 
ATOM      8  F1  UNL d   1       2.386   0.371   1.568  0.00  0.00    -0.096 F 
ATOM      9  I   UNL d   1       1.657   3.484   1.701  0.00  0.00    -0.060 I 
ATOM     10  F2  UNL d   1       0.726   3.741  -1.350  0.00  0.00    -0.096 F 
ATOM     11  F3  UNL d   1       0.604   1.923  -3.354  0.00  0.00    -0.097 F 
ATOM     12  F4  UNL d   1       1.364  -0.661  -2.919  0.00  0.00    -0.092 F 
ENDROOT
TORSDOF 0
ENDMDL
