MODEL 1
REMARK minimizedAffinity -0.93888247
REMARK minimizedRMSD -1
REMARK  0 active torsions:
REMARK  status: ('A' for Active; 'I' for Inactive)
ROOT
ATOM      1  C   UNL d   1       1.147   4.702   0.305  0.00  0.00     0.124 A 
ATOM      2  C1  UNL d   1       0.831   3.730   1.244  0.00  0.00     0.062 A 
ATOM      3  C2  UNL d   1       0.944   2.381   0.920  0.00  0.00     0.162 A 
ATOM      4  C3  UNL d   1       1.376   1.996  -0.349  0.00  0.00    -0.034 A 
ATOM      5  C4  UNL d   1       1.691   2.979  -1.288  0.00  0.00     0.162 A 
ATOM      6  C5  UNL d   1       1.576   4.326  -0.960  0.00  0.00     0.062 A 
ATOM      7  F   UNL d   1       1.882   5.264  -1.868  0.00  0.00    -0.097 F 
ATOM      8  F1  UNL d   1       2.109   2.644  -2.518  0.00  0.00    -0.096 F 
ATOM      9  I   UNL d   1       1.546  -0.020  -0.837  0.00  0.00    -0.060 I 
ATOM     10  F2  UNL d   1       0.632   1.463   1.847  0.00  0.00    -0.096 F 
ATOM     11  F3  UNL d   1       0.415   4.091   2.467  0.00  0.00    -0.097 F 
ATOM     12  F4  UNL d   1       1.037   6.000   0.619  0.00  0.00    -0.092 F 
ENDROOT
TORSDOF 0
ENDMDL
