MODEL 1
REMARK minimizedAffinity 23.1191578
REMARK minimizedRMSD -1
REMARK  0 active torsions:
REMARK  status: ('A' for Active; 'I' for Inactive)
ROOT
ATOM      1  C   UNL d   1      -3.150   1.893   3.369  0.00  0.00     0.124 A 
ATOM      2  C1  UNL d   1      -3.270   0.777   2.553  0.00  0.00     0.062 A 
ATOM      3  C2  UNL d   1      -2.631  -0.412   2.894  0.00  0.00     0.162 A 
ATOM      4  C3  UNL d   1      -1.866  -0.491   4.057  0.00  0.00    -0.034 A 
ATOM      5  C4  UNL d   1      -1.748   0.636   4.872  0.00  0.00     0.162 A 
ATOM      6  C5  UNL d   1      -2.389   1.822   4.528  0.00  0.00     0.062 A 
ATOM      7  F   UNL d   1      -2.271   2.899   5.318  0.00  0.00    -0.097 F 
ATOM      8  F1  UNL d   1      -1.020   0.595   5.998  0.00  0.00    -0.096 F 
ATOM      9  I   UNL d   1      -0.909  -2.266   4.570  0.00  0.00    -0.060 I 
ATOM     10  F2  UNL d   1      -2.765  -1.474   2.086  0.00  0.00    -0.096 F 
ATOM     11  F3  UNL d   1      -4.004   0.844   1.433  0.00  0.00    -0.097 F 
ATOM     12  F4  UNL d   1      -3.765   3.036   3.039  0.00  0.00    -0.092 F 
ENDROOT
TORSDOF 0
ENDMDL
