MODEL 1
REMARK minimizedAffinity -4.10885429
REMARK minimizedRMSD -1
REMARK  0 active torsions:
REMARK  status: ('A' for Active; 'I' for Inactive)
ROOT
ATOM      1  C   UNL d   1      -0.116   3.760  -2.170  0.00  0.00     0.077 C 
ATOM      2  C1  UNL d   1      -0.474   3.055  -0.896  0.00  0.00    -0.074 A 
ATOM      3  C2  UNL d   1      -1.173   3.717   0.119  0.00  0.00    -0.005 A 
ATOM      4  C3  UNL d   1      -1.508   3.046   1.295  0.00  0.00     0.006 A 
ATOM      5  C4  UNL d   1      -1.149   1.708   1.467  0.00  0.00    -0.005 A 
ATOM      6  C5  UNL d   1      -0.451   1.030   0.463  0.00  0.00    -0.074 A 
ATOM      7  C6  UNL d   1      -0.066  -0.410   0.628  0.00  0.00     0.077 C 
ATOM      8  C7  UNL d   1      -0.124   1.709  -0.719  0.00  0.00    -0.001 A 
ENDROOT
TORSDOF 0
ENDMDL
