MODEL 1
REMARK minimizedAffinity -6.02880573
REMARK minimizedRMSD -1
REMARK  0 active torsions:
REMARK  status: ('A' for Active; 'I' for Inactive)
ROOT
ATOM      1  C   UNL d   1      -0.840  -0.685   1.444  0.00  0.00     0.077 C 
ATOM      2  C1  UNL d   1      -1.178   0.759   1.219  0.00  0.00    -0.074 A 
ATOM      3  C2  UNL d   1      -2.124   1.408   2.019  0.00  0.00    -0.005 A 
ATOM      4  C3  UNL d   1      -2.422   2.754   1.805  0.00  0.00     0.006 A 
ATOM      5  C4  UNL d   1      -1.778   3.463   0.790  0.00  0.00    -0.005 A 
ATOM      6  C5  UNL d   1      -0.829   2.831  -0.019  0.00  0.00    -0.074 A 
ATOM      7  C6  UNL d   1      -0.120   3.581  -1.108  0.00  0.00     0.077 C 
ATOM      8  C7  UNL d   1      -0.530   1.480   0.207  0.00  0.00    -0.001 A 
ENDROOT
TORSDOF 0
ENDMDL
