MODEL 1
REMARK minimizedAffinity -5.64162111
REMARK minimizedRMSD -1
REMARK  0 active torsions:
REMARK  status: ('A' for Active; 'I' for Inactive)
ROOT
ATOM      1  C   UNL d   1       0.314  -1.061  -1.215  0.00  0.00     0.077 C 
ATOM      2  C1  UNL d   1      -0.246   0.004  -0.319  0.00  0.00    -0.074 A 
ATOM      3  C2  UNL d   1      -0.310  -0.182   1.066  0.00  0.00    -0.005 A 
ATOM      4  C3  UNL d   1      -0.824   0.820   1.888  0.00  0.00     0.006 A 
ATOM      5  C4  UNL d   1      -1.280   2.018   1.334  0.00  0.00    -0.005 A 
ATOM      6  C5  UNL d   1      -1.224   2.222  -0.048  0.00  0.00    -0.074 A 
ATOM      7  C6  UNL d   1      -1.700   3.507  -0.659  0.00  0.00     0.077 C 
ATOM      8  C7  UNL d   1      -0.699   1.212  -0.867  0.00  0.00    -0.001 A 
ENDROOT
TORSDOF 0
ENDMDL
