MODEL 1
REMARK minimizedAffinity -4.53374481
REMARK minimizedRMSD -1
REMARK  0 active torsions:
REMARK  status: ('A' for Active; 'I' for Inactive)
ROOT
ATOM      1  C   UNL d   1      -0.370   3.558  -1.074  0.00  0.00     0.077 C 
ATOM      2  C1  UNL d   1      -0.338   2.286  -0.280  0.00  0.00    -0.074 A 
ATOM      3  C2  UNL d   1      -0.838   2.241   1.025  0.00  0.00    -0.005 A 
ATOM      4  C3  UNL d   1      -0.811   1.049   1.748  0.00  0.00     0.006 A 
ATOM      5  C4  UNL d   1      -0.284  -0.109   1.175  0.00  0.00    -0.005 A 
ATOM      6  C5  UNL d   1       0.219  -0.084  -0.130  0.00  0.00    -0.074 A 
ATOM      7  C6  UNL d   1       0.779  -1.321  -0.765  0.00  0.00     0.077 C 
ATOM      8  C7  UNL d   1       0.182   1.117  -0.853  0.00  0.00    -0.001 A 
ENDROOT
TORSDOF 0
ENDMDL
