MODEL 1
REMARK minimizedAffinity -5.76766777
REMARK minimizedRMSD -1
REMARK  0 active torsions:
REMARK  status: ('A' for Active; 'I' for Inactive)
ROOT
ATOM      1  C   UNL d   1      -0.150   3.983  -1.100  0.00  0.00     0.077 C 
ATOM      2  C1  UNL d   1      -0.734   3.017  -0.113  0.00  0.00    -0.074 A 
ATOM      3  C2  UNL d   1      -1.782   3.397   0.731  0.00  0.00    -0.005 A 
ATOM      4  C3  UNL d   1      -2.321   2.485   1.638  0.00  0.00     0.006 A 
ATOM      5  C4  UNL d   1      -1.819   1.185   1.709  0.00  0.00    -0.005 A 
ATOM      6  C5  UNL d   1      -0.772   0.786   0.872  0.00  0.00    -0.074 A 
ATOM      7  C6  UNL d   1      -0.227  -0.610   0.929  0.00  0.00     0.077 C 
ATOM      8  C7  UNL d   1      -0.240   1.707  -0.041  0.00  0.00    -0.001 A 
ENDROOT
TORSDOF 0
ENDMDL
