MODEL 1
REMARK minimizedAffinity -5.60891867
REMARK minimizedRMSD -1
REMARK  0 active torsions:
REMARK  status: ('A' for Active; 'I' for Inactive)
ROOT
ATOM      1  C   UNL d   1      -0.199  -0.796   1.057  0.00  0.00     0.077 C 
ATOM      2  C1  UNL d   1      -0.616   0.640   0.941  0.00  0.00    -0.074 A 
ATOM      3  C2  UNL d   1      -1.577   1.181   1.801  0.00  0.00    -0.005 A 
ATOM      4  C3  UNL d   1      -1.948   2.521   1.688  0.00  0.00     0.006 A 
ATOM      5  C4  UNL d   1      -1.362   3.332   0.715  0.00  0.00    -0.005 A 
ATOM      6  C5  UNL d   1      -0.399   2.809  -0.154  0.00  0.00    -0.074 A 
ATOM      7  C6  UNL d   1       0.247   3.669  -1.199  0.00  0.00     0.077 C 
ATOM      8  C7  UNL d   1      -0.027   1.463  -0.029  0.00  0.00    -0.001 A 
ENDROOT
TORSDOF 0
ENDMDL
