MODEL 1
REMARK minimizedAffinity -5.10841751
REMARK minimizedRMSD -1
REMARK  0 active torsions:
REMARK  status: ('A' for Active; 'I' for Inactive)
ROOT
ATOM      1  C   UNL d   1      -0.153   3.580  -0.190  0.00  0.00     0.077 C 
ATOM      2  C1  UNL d   1      -0.286   2.203   0.387  0.00  0.00    -0.074 A 
ATOM      3  C2  UNL d   1      -0.874   2.002   1.640  0.00  0.00    -0.005 A 
ATOM      4  C3  UNL d   1      -1.000   0.714   2.160  0.00  0.00     0.006 A 
ATOM      5  C4  UNL d   1      -0.539  -0.385   1.434  0.00  0.00    -0.005 A 
ATOM      6  C5  UNL d   1       0.051  -0.204   0.179  0.00  0.00    -0.074 A 
ATOM      7  C6  UNL d   1       0.542  -1.375  -0.619  0.00  0.00     0.077 C 
ATOM      8  C7  UNL d   1       0.167   1.093  -0.340  0.00  0.00    -0.001 A 
ENDROOT
TORSDOF 0
ENDMDL
