MODEL 1
REMARK minimizedAffinity -2.25973368
REMARK minimizedRMSD -1
REMARK  0 active torsions:
REMARK  status: ('A' for Active; 'I' for Inactive)
ROOT
ATOM      1  C   UNL d   1       0.462  -1.526  -0.742  0.00  0.00     0.077 C 
ATOM      2  C1  UNL d   1      -0.064  -0.400   0.098  0.00  0.00    -0.074 A 
ATOM      3  C2  UNL d   1      -0.686  -0.650   1.326  0.00  0.00    -0.005 A 
ATOM      4  C3  UNL d   1      -1.162   0.408   2.101  0.00  0.00     0.006 A 
ATOM      5  C4  UNL d   1      -1.022   1.723   1.656  0.00  0.00    -0.005 A 
ATOM      6  C5  UNL d   1      -0.403   1.992   0.432  0.00  0.00    -0.074 A 
ATOM      7  C6  UNL d   1      -0.235   3.400  -0.056  0.00  0.00     0.077 C 
ATOM      8  C7  UNL d   1       0.080   0.924  -0.338  0.00  0.00    -0.001 A 
ENDROOT
TORSDOF 0
ENDMDL
