MODEL 1
REMARK minimizedAffinity 0.70368576
REMARK minimizedRMSD -1
REMARK  0 active torsions:
REMARK  status: ('A' for Active; 'I' for Inactive)
ROOT
ATOM      1  C   UNL d   1      -0.003  -0.091   1.109  0.00  0.00     0.077 C 
ATOM      2  C1  UNL d   1       0.412  -0.882  -0.095  0.00  0.00    -0.074 A 
ATOM      3  C2  UNL d   1       1.085  -0.273  -1.159  0.00  0.00    -0.005 A 
ATOM      4  C3  UNL d   1       1.473  -1.024  -2.268  0.00  0.00     0.006 A 
ATOM      5  C4  UNL d   1       1.192  -2.389  -2.326  0.00  0.00    -0.005 A 
ATOM      6  C5  UNL d   1       0.520  -3.016  -1.272  0.00  0.00    -0.074 A 
ATOM      7  C6  UNL d   1       0.218  -4.485  -1.313  0.00  0.00     0.077 C 
ATOM      8  C7  UNL d   1       0.139  -2.256  -0.157  0.00  0.00    -0.001 A 
ENDROOT
TORSDOF 0
ENDMDL
