MODEL 1
REMARK minimizedAffinity -2.3382144
REMARK minimizedRMSD -1
REMARK  0 active torsions:
REMARK  status: ('A' for Active; 'I' for Inactive)
ROOT
ATOM      1  C   UNL d   1       1.111  -1.650  -0.997  0.00  0.00     0.077 C 
ATOM      2  C1  UNL d   1       0.778  -0.470  -0.133  0.00  0.00    -0.074 A 
ATOM      3  C2  UNL d   1       0.383  -0.642   1.197  0.00  0.00    -0.005 A 
ATOM      4  C3  UNL d   1       0.086   0.466   1.992  0.00  0.00     0.006 A 
ATOM      5  C4  UNL d   1       0.181   1.754   1.464  0.00  0.00    -0.005 A 
ATOM      6  C5  UNL d   1       0.575   1.946   0.136  0.00  0.00    -0.074 A 
ATOM      7  C6  UNL d   1       0.691   3.324  -0.443  0.00  0.00     0.077 C 
ATOM      8  C7  UNL d   1       0.878   0.828  -0.653  0.00  0.00    -0.001 A 
ENDROOT
TORSDOF 0
ENDMDL
