MODEL 1
REMARK minimizedAffinity -6.25462055
REMARK minimizedRMSD -1
REMARK  0 active torsions:
REMARK  status: ('A' for Active; 'I' for Inactive)
ROOT
ATOM      1  C   UNL d   1       0.378   4.164  -0.735  0.00  0.00     0.077 C 
ATOM      2  C1  UNL d   1      -0.628   3.306  -0.027  0.00  0.00    -0.074 A 
ATOM      3  C2  UNL d   1      -1.925   3.770   0.214  0.00  0.00    -0.005 A 
ATOM      4  C3  UNL d   1      -2.853   2.958   0.865  0.00  0.00     0.006 A 
ATOM      5  C4  UNL d   1      -2.494   1.675   1.281  0.00  0.00    -0.005 A 
ATOM      6  C5  UNL d   1      -1.202   1.193   1.048  0.00  0.00    -0.074 A 
ATOM      7  C6  UNL d   1      -0.803  -0.187   1.479  0.00  0.00     0.077 C 
ATOM      8  C7  UNL d   1      -0.277   2.013   0.387  0.00  0.00    -0.001 A 
ENDROOT
TORSDOF 0
ENDMDL
