MODEL 1
REMARK minimizedAffinity -4.61896229
REMARK minimizedRMSD -1
REMARK  0 active torsions:
REMARK  status: ('A' for Active; 'I' for Inactive)
ROOT
ATOM      1  C   UNL d   1      -2.267   3.408   0.049  0.00  0.00     0.077 C 
ATOM      2  C1  UNL d   1      -1.504   2.151   0.345  0.00  0.00    -0.074 A 
ATOM      3  C2  UNL d   1      -1.521   1.582   1.622  0.00  0.00    -0.005 A 
ATOM      4  C3  UNL d   1      -0.814   0.408   1.879  0.00  0.00     0.006 A 
ATOM      5  C4  UNL d   1      -0.083  -0.209   0.863  0.00  0.00    -0.005 A 
ATOM      6  C5  UNL d   1      -0.054   0.345  -0.421  0.00  0.00    -0.074 A 
ATOM      7  C6  UNL d   1       0.718  -0.311  -1.527  0.00  0.00     0.077 C 
ATOM      8  C7  UNL d   1      -0.773   1.521  -0.673  0.00  0.00    -0.001 A 
ENDROOT
TORSDOF 0
ENDMDL
