MODEL 1
REMARK minimizedAffinity -3.8087101
REMARK minimizedRMSD -1
REMARK  0 active torsions:
REMARK  status: ('A' for Active; 'I' for Inactive)
ROOT
ATOM      1  C   UNL d   1       0.998  -0.983  -1.149  0.00  0.00     0.077 C 
ATOM      2  C1  UNL d   1       0.490   0.285  -0.530  0.00  0.00    -0.074 A 
ATOM      3  C2  UNL d   1       0.802   1.531  -1.084  0.00  0.00    -0.005 A 
ATOM      4  C3  UNL d   1       0.313   2.701  -0.504  0.00  0.00     0.006 A 
ATOM      5  C4  UNL d   1      -0.491   2.638   0.635  0.00  0.00    -0.005 A 
ATOM      6  C5  UNL d   1      -0.815   1.401   1.202  0.00  0.00    -0.074 A 
ATOM      7  C6  UNL d   1      -1.686   1.315   2.420  0.00  0.00     0.077 C 
ATOM      8  C7  UNL d   1      -0.326   0.230   0.609  0.00  0.00    -0.001 A 
ENDROOT
TORSDOF 0
ENDMDL
