MODEL 1
REMARK minimizedAffinity -4.71619034
REMARK minimizedRMSD -1
REMARK  0 active torsions:
REMARK  status: ('A' for Active; 'I' for Inactive)
ROOT
ATOM      1  C   UNL d   1      -2.357   3.516   1.403  0.00  0.00     0.077 C 
ATOM      2  C1  UNL d   1      -1.341   2.825   0.543  0.00  0.00    -0.074 A 
ATOM      3  C2  UNL d   1      -0.367   3.554  -0.146  0.00  0.00    -0.005 A 
ATOM      4  C3  UNL d   1       0.578   2.897  -0.934  0.00  0.00     0.006 A 
ATOM      5  C4  UNL d   1       0.557   1.506  -1.042  0.00  0.00    -0.005 A 
ATOM      6  C5  UNL d   1      -0.409   0.760  -0.359  0.00  0.00    -0.074 A 
ATOM      7  C6  UNL d   1      -0.438  -0.737  -0.456  0.00  0.00     0.077 C 
ATOM      8  C7  UNL d   1      -1.350   1.427   0.437  0.00  0.00    -0.001 A 
ENDROOT
TORSDOF 0
ENDMDL
