MODEL 1
REMARK minimizedAffinity -6.41197014
REMARK minimizedRMSD -1
REMARK  0 active torsions:
REMARK  status: ('A' for Active; 'I' for Inactive)
ROOT
ATOM      1  C   UNL d   1      -1.284   0.213   2.212  0.00  0.00     0.077 C 
ATOM      2  C1  UNL d   1      -0.991   1.275   1.195  0.00  0.00    -0.074 A 
ATOM      3  C2  UNL d   1      -1.804   2.408   1.083  0.00  0.00    -0.005 A 
ATOM      4  C3  UNL d   1      -1.513   3.392   0.139  0.00  0.00     0.006 A 
ATOM      5  C4  UNL d   1      -0.409   3.254  -0.703  0.00  0.00    -0.005 A 
ATOM      6  C5  UNL d   1       0.416   2.129  -0.605  0.00  0.00    -0.074 A 
ATOM      7  C6  UNL d   1       1.613   1.970  -1.495  0.00  0.00     0.077 C 
ATOM      8  C7  UNL d   1       0.122   1.148   0.351  0.00  0.00    -0.001 A 
ENDROOT
TORSDOF 0
ENDMDL
