MODEL 1
REMARK minimizedAffinity -5.79150534
REMARK minimizedRMSD -1
REMARK  0 active torsions:
REMARK  status: ('A' for Active; 'I' for Inactive)
ROOT
ATOM      1  C   UNL d   1       1.235  -1.032  -0.869  0.00  0.00     0.077 C 
ATOM      2  C1  UNL d   1       0.463   0.031  -0.146  0.00  0.00    -0.074 A 
ATOM      3  C2  UNL d   1      -0.263  -0.269   1.011  0.00  0.00    -0.005 A 
ATOM      4  C3  UNL d   1      -0.968   0.732   1.678  0.00  0.00     0.006 A 
ATOM      5  C4  UNL d   1      -0.955   2.042   1.196  0.00  0.00    -0.005 A 
ATOM      6  C5  UNL d   1      -0.234   2.361   0.041  0.00  0.00    -0.074 A 
ATOM      7  C6  UNL d   1      -0.201   3.765  -0.485  0.00  0.00     0.077 C 
ATOM      8  C7  UNL d   1       0.478   1.351  -0.620  0.00  0.00    -0.001 A 
ENDROOT
TORSDOF 0
ENDMDL
