MODEL 1
REMARK minimizedAffinity -1.17955899
REMARK minimizedRMSD -1
REMARK  2 active torsions:
REMARK  status: ('A' for Active; 'I' for Inactive)
REMARK    1  A    between atoms: C1_2  and  C2_3 
REMARK    2  A    between atoms: C2_3  and  C3_4 
ROOT
ATOM      1  C3  UNL d   1       1.824  -1.499   2.063  0.00  0.00    -0.075 A 
ATOM      2  C4  UNL d   1       0.765  -1.563   2.980  0.00  0.00     0.002 A 
ATOM      3  C5  UNL d   1       1.005  -1.447   4.349  0.00  0.00     0.002 A 
ATOM      4  C6  UNL d   1       2.305  -1.276   4.820  0.00  0.00    -0.004 A 
ATOM      5  C7  UNL d   1       3.367  -1.228   3.919  0.00  0.00     0.002 A 
ATOM      6  C8  UNL d   1       3.129  -1.339   2.548  0.00  0.00     0.002 A 
ENDROOT
BRANCH   1   7
ATOM      7  C2  UNL d   1       1.568  -1.594   0.578  0.00  0.00     0.056 C 
BRANCH   7   8
ATOM      8  C1  UNL d   1       1.343  -0.240  -0.104  0.00  0.00     0.007 C 
ATOM      9  C   UNL d   1       0.117   0.498   0.417  0.00  0.00     0.009 C 
ENDBRANCH   7   8
ENDBRANCH   1   7
TORSDOF 2
ENDMDL
