MODEL 1
REMARK minimizedAffinity -3.21647692
REMARK minimizedRMSD -1
REMARK  2 active torsions:
REMARK  status: ('A' for Active; 'I' for Inactive)
REMARK    1  A    between atoms: C1_2  and  C2_3 
REMARK    2  A    between atoms: C2_3  and  C3_4 
ROOT
ATOM      1  C3  UNL d   1       1.819  -1.303   2.028  0.00  0.00    -0.075 A 
ATOM      2  C4  UNL d   1       1.466  -1.283   3.386  0.00  0.00     0.002 A 
ATOM      3  C5  UNL d   1       2.441  -1.106   4.368  0.00  0.00     0.002 A 
ATOM      4  C6  UNL d   1       3.779  -0.957   4.008  0.00  0.00    -0.004 A 
ATOM      5  C7  UNL d   1       4.142  -0.992   2.663  0.00  0.00     0.002 A 
ATOM      6  C8  UNL d   1       3.168  -1.164   1.678  0.00  0.00     0.002 A 
ENDROOT
BRANCH   1   7
ATOM      7  C2  UNL d   1       0.765  -1.464   0.959  0.00  0.00     0.056 C 
BRANCH   7   8
ATOM      8  C1  UNL d   1       0.571  -0.223   0.082  0.00  0.00     0.007 C 
ATOM      9  C   UNL d   1      -0.477   0.739   0.627  0.00  0.00     0.009 C 
ENDBRANCH   7   8
ENDBRANCH   1   7
TORSDOF 2
ENDMDL
