MODEL 1
REMARK minimizedAffinity -1.72609973
REMARK minimizedRMSD -1
REMARK  2 active torsions:
REMARK  status: ('A' for Active; 'I' for Inactive)
REMARK    1  A    between atoms: C1_2  and  C2_3 
REMARK    2  A    between atoms: C2_3  and  C3_4 
ROOT
ATOM      1  C3  UNL d   1      -1.380  -4.924  -3.555  0.00  0.00    -0.075 A 
ATOM      2  C4  UNL d   1      -2.087  -5.659  -4.519  0.00  0.00     0.002 A 
ATOM      3  C5  UNL d   1      -1.486  -6.000  -5.731  0.00  0.00     0.002 A 
ATOM      4  C6  UNL d   1      -0.178  -5.603  -6.000  0.00  0.00    -0.004 A 
ATOM      5  C7  UNL d   1       0.528  -4.859  -5.057  0.00  0.00     0.002 A 
ATOM      6  C8  UNL d   1      -0.069  -4.520  -3.841  0.00  0.00     0.002 A 
ENDROOT
BRANCH   1   7
ATOM      7  C2  UNL d   1      -2.014  -4.578  -2.230  0.00  0.00     0.056 C 
BRANCH   7   8
ATOM      8  C1  UNL d   1      -1.108  -3.765  -1.298  0.00  0.00     0.007 C 
ATOM      9  C   UNL d   1      -1.782  -3.385   0.013  0.00  0.00     0.009 C 
ENDBRANCH   7   8
ENDBRANCH   1   7
TORSDOF 2
ENDMDL
