MODEL 1
REMARK minimizedAffinity 2.63177562
REMARK minimizedRMSD -1
REMARK  2 active torsions:
REMARK  status: ('A' for Active; 'I' for Inactive)
REMARK    1  A    between atoms: C1_2  and  C2_3 
REMARK    2  A    between atoms: C2_3  and  C3_4 
ROOT
ATOM      1  C3  UNL d   1      -0.150  -5.127  -5.319  0.00  0.00    -0.075 A 
ATOM      2  C4  UNL d   1      -1.181  -5.792  -6.000  0.00  0.00     0.002 A 
ATOM      3  C5  UNL d   1      -2.416  -6.000  -5.386  0.00  0.00     0.002 A 
ATOM      4  C6  UNL d   1      -2.634  -5.556  -4.084  0.00  0.00    -0.004 A 
ATOM      5  C7  UNL d   1      -1.612  -4.909  -3.392  0.00  0.00     0.002 A 
ATOM      6  C8  UNL d   1      -0.376  -4.695  -4.005  0.00  0.00     0.002 A 
ENDROOT
BRANCH   1   7
ATOM      7  C2  UNL d   1       1.179  -4.872  -5.988  0.00  0.00     0.056 C 
BRANCH   7   8
ATOM      8  C1  UNL d   1       2.199  -6.000  -5.798  0.00  0.00     0.007 C 
ATOM      9  C   UNL d   1       3.035  -5.848  -4.535  0.00  0.00     0.009 C 
ENDBRANCH   7   8
ENDBRANCH   1   7
TORSDOF 2
ENDMDL
