MODEL 1
REMARK minimizedAffinity 4.55621481
REMARK minimizedRMSD -1
REMARK  2 active torsions:
REMARK  status: ('A' for Active; 'I' for Inactive)
REMARK    1  A    between atoms: C1_2  and  C2_3 
REMARK    2  A    between atoms: C2_3  and  C3_4 
ROOT
ATOM      1  C3  UNL d   1      -3.245   1.209  -3.060  0.00  0.00    -0.075 A 
ATOM      2  C4  UNL d   1      -2.717   0.393  -2.049  0.00  0.00     0.002 A 
ATOM      3  C5  UNL d   1      -3.555  -0.415  -1.281  0.00  0.00     0.002 A 
ATOM      4  C6  UNL d   1      -4.930  -0.410  -1.505  0.00  0.00    -0.004 A 
ATOM      5  C7  UNL d   1      -5.468   0.409  -2.495  0.00  0.00     0.002 A 
ATOM      6  C8  UNL d   1      -4.631   1.215  -3.269  0.00  0.00     0.002 A 
ENDROOT
BRANCH   1   7
ATOM      7  C2  UNL d   1      -2.340   2.063  -3.915  0.00  0.00     0.056 C 
BRANCH   7   8
ATOM      8  C1  UNL d   1      -0.898   2.149  -3.405  0.00  0.00     0.007 C 
ATOM      9  C   UNL d   1      -0.348   3.569  -3.394  0.00  0.00     0.009 C 
ENDBRANCH   7   8
ENDBRANCH   1   7
TORSDOF 2
ENDMDL
