MODEL 1
REMARK minimizedAffinity 6.56710815
REMARK minimizedRMSD -1
REMARK  2 active torsions:
REMARK  status: ('A' for Active; 'I' for Inactive)
REMARK    1  A    between atoms: C1_2  and  C2_3 
REMARK    2  A    between atoms: C2_3  and  C3_4 
ROOT
ATOM      1  C3  UNL d   1       3.935  -2.803   4.825  0.00  0.00    -0.075 A 
ATOM      2  C4  UNL d   1       3.551  -3.188   3.533  0.00  0.00     0.002 A 
ATOM      3  C5  UNL d   1       3.754  -2.334   2.449  0.00  0.00     0.002 A 
ATOM      4  C6  UNL d   1       4.334  -1.082   2.644  0.00  0.00    -0.004 A 
ATOM      5  C7  UNL d   1       4.704  -0.682   3.927  0.00  0.00     0.002 A 
ATOM      6  C8  UNL d   1       4.506  -1.537   5.012  0.00  0.00     0.002 A 
ENDROOT
BRANCH   1   7
ATOM      7  C2  UNL d   1       3.744  -3.735   5.998  0.00  0.00     0.056 C 
BRANCH   7   8
ATOM      8  C1  UNL d   1       3.672  -5.217   5.612  0.00  0.00     0.007 C 
ATOM      9  C   UNL d   1       4.920  -5.999   5.999  0.00  0.00     0.009 C 
ENDBRANCH   7   8
ENDBRANCH   1   7
TORSDOF 2
ENDMDL
