MODEL 1
REMARK minimizedAffinity 3.15595889
REMARK minimizedRMSD -1
REMARK  2 active torsions:
REMARK  status: ('A' for Active; 'I' for Inactive)
REMARK    1  A    between atoms: C1_2  and  C2_3 
REMARK    2  A    between atoms: C2_3  and  C3_4 
ROOT
ATOM      1  C3  UNL d   1      -4.010   1.314  -2.580  0.00  0.00    -0.075 A 
ATOM      2  C4  UNL d   1      -3.606   1.165  -1.245  0.00  0.00     0.002 A 
ATOM      3  C5  UNL d   1      -4.384   0.435  -0.346  0.00  0.00     0.002 A 
ATOM      4  C6  UNL d   1      -5.579  -0.145  -0.766  0.00  0.00    -0.004 A 
ATOM      5  C7  UNL d   1      -5.999   0.010  -2.085  0.00  0.00     0.002 A 
ATOM      6  C8  UNL d   1      -5.220   0.736  -2.988  0.00  0.00     0.002 A 
ENDROOT
BRANCH   1   7
ATOM      7  C2  UNL d   1      -3.158   2.078  -3.565  0.00  0.00     0.056 C 
BRANCH   7   8
ATOM      8  C1  UNL d   1      -1.653   1.840  -3.403  0.00  0.00     0.007 C 
ATOM      9  C   UNL d   1      -0.808   3.038  -3.818  0.00  0.00     0.009 C 
ENDBRANCH   7   8
ENDBRANCH   1   7
TORSDOF 2
ENDMDL
