MODEL 1
REMARK minimizedAffinity 4.00799799
REMARK minimizedRMSD -1
REMARK  2 active torsions:
REMARK  status: ('A' for Active; 'I' for Inactive)
REMARK    1  A    between atoms: C1_2  and  C2_3 
REMARK    2  A    between atoms: C2_3  and  C3_4 
ROOT
ATOM      1  C3  UNL d   1       2.555  -0.711   1.458  0.00  0.00    -0.075 A 
ATOM      2  C4  UNL d   1       2.619  -1.179   2.778  0.00  0.00     0.002 A 
ATOM      3  C5  UNL d   1       3.835  -1.206   3.461  0.00  0.00     0.002 A 
ATOM      4  C6  UNL d   1       5.002  -0.778   2.831  0.00  0.00    -0.004 A 
ATOM      5  C7  UNL d   1       4.952  -0.327   1.514  0.00  0.00     0.002 A 
ATOM      6  C8  UNL d   1       3.736  -0.294   0.829  0.00  0.00     0.002 A 
ENDROOT
BRANCH   1   7
ATOM      7  C2  UNL d   1       1.237  -0.651   0.723  0.00  0.00     0.056 C 
BRANCH   7   8
ATOM      8  C1  UNL d   1       0.719  -2.016   0.258  0.00  0.00     0.007 C 
ATOM      9  C   UNL d   1      -0.623  -2.390   0.874  0.00  0.00     0.009 C 
ENDBRANCH   7   8
ENDBRANCH   1   7
TORSDOF 2
ENDMDL
