MODEL 1
REMARK minimizedAffinity 3.61397004
REMARK minimizedRMSD -1
REMARK  2 active torsions:
REMARK  status: ('A' for Active; 'I' for Inactive)
REMARK    1  A    between atoms: C1_2  and  C2_3 
REMARK    2  A    between atoms: C2_3  and  C3_4 
ROOT
ATOM      1  C3  UNL d   1      -3.660   0.890  -2.329  0.00  0.00    -0.075 A 
ATOM      2  C4  UNL d   1      -3.428   0.941  -0.947  0.00  0.00     0.002 A 
ATOM      3  C5  UNL d   1      -4.192   0.169  -0.071  0.00  0.00     0.002 A 
ATOM      4  C6  UNL d   1      -5.203  -0.654  -0.564  0.00  0.00    -0.004 A 
ATOM      5  C7  UNL d   1      -5.453  -0.700  -1.933  0.00  0.00     0.002 A 
ATOM      6  C8  UNL d   1      -4.687   0.068  -2.812  0.00  0.00     0.002 A 
ENDROOT
BRANCH   1   7
ATOM      7  C2  UNL d   1      -2.817   1.700  -3.285  0.00  0.00     0.056 C 
BRANCH   7   8
ATOM      8  C1  UNL d   1      -1.310   1.594  -3.030  0.00  0.00     0.007 C 
ATOM      9  C   UNL d   1      -0.511   2.713  -3.684  0.00  0.00     0.009 C 
ENDBRANCH   7   8
ENDBRANCH   1   7
TORSDOF 2
ENDMDL
