MODEL 1
REMARK minimizedAffinity 0.0588581152
REMARK minimizedRMSD -1
REMARK  2 active torsions:
REMARK  status: ('A' for Active; 'I' for Inactive)
REMARK    1  A    between atoms: C1_2  and  C2_3 
REMARK    2  A    between atoms: C2_3  and  C3_4 
ROOT
ATOM      1  C3  UNL d   1       0.965  -2.466   0.624  0.00  0.00    -0.075 A 
ATOM      2  C4  UNL d   1       0.656  -1.160   0.216  0.00  0.00     0.002 A 
ATOM      3  C5  UNL d   1       1.619  -0.152   0.278  0.00  0.00     0.002 A 
ATOM      4  C6  UNL d   1       2.896  -0.433   0.759  0.00  0.00    -0.004 A 
ATOM      5  C7  UNL d   1       3.209  -1.723   1.183  0.00  0.00     0.002 A 
ATOM      6  C8  UNL d   1       2.249  -2.734   1.117  0.00  0.00     0.002 A 
ENDROOT
BRANCH   1   7
ATOM      7  C2  UNL d   1      -0.063  -3.568   0.531  0.00  0.00     0.056 C 
BRANCH   7   8
ATOM      8  C1  UNL d   1      -1.200  -3.447   1.550  0.00  0.00     0.007 C 
ATOM      9  C   UNL d   1      -2.376  -4.368   1.250  0.00  0.00     0.009 C 
ENDBRANCH   7   8
ENDBRANCH   1   7
TORSDOF 2
ENDMDL
