MODEL 1
REMARK minimizedAffinity 3.48720527
REMARK minimizedRMSD -1
REMARK  2 active torsions:
REMARK  status: ('A' for Active; 'I' for Inactive)
REMARK    1  A    between atoms: C1_2  and  C2_3 
REMARK    2  A    between atoms: C2_3  and  C3_4 
ROOT
ATOM      1  C3  UNL d   1      -3.417   1.152  -2.915  0.00  0.00    -0.075 A 
ATOM      2  C4  UNL d   1      -4.815   1.070  -2.998  0.00  0.00     0.002 A 
ATOM      3  C5  UNL d   1      -5.520   0.170  -2.198  0.00  0.00     0.002 A 
ATOM      4  C6  UNL d   1      -4.838  -0.664  -1.314  0.00  0.00    -0.004 A 
ATOM      5  C7  UNL d   1      -3.448  -0.602  -1.235  0.00  0.00     0.002 A 
ATOM      6  C8  UNL d   1      -2.741   0.301  -2.031  0.00  0.00     0.002 A 
ENDROOT
BRANCH   1   7
ATOM      7  C2  UNL d   1      -2.651   2.145  -3.756  0.00  0.00     0.056 C 
BRANCH   7   8
ATOM      8  C1  UNL d   1      -1.168   2.260  -3.389  0.00  0.00     0.007 C 
ATOM      9  C   UNL d   1      -0.567   3.616  -3.735  0.00  0.00     0.009 C 
ENDBRANCH   7   8
ENDBRANCH   1   7
TORSDOF 2
ENDMDL
