MODEL 1
REMARK minimizedAffinity 2.53371882
REMARK minimizedRMSD -1
REMARK  2 active torsions:
REMARK  status: ('A' for Active; 'I' for Inactive)
REMARK    1  A    between atoms: C1_2  and  C2_3 
REMARK    2  A    between atoms: C2_3  and  C3_4 
ROOT
ATOM      1  C3  UNL d   1       1.805  -1.088   0.823  0.00  0.00    -0.075 A 
ATOM      2  C4  UNL d   1       1.165  -2.243   0.349  0.00  0.00     0.002 A 
ATOM      3  C5  UNL d   1      -0.130  -2.173  -0.166  0.00  0.00     0.002 A 
ATOM      4  C6  UNL d   1      -0.804  -0.954  -0.204  0.00  0.00    -0.004 A 
ATOM      5  C7  UNL d   1      -0.183   0.196   0.280  0.00  0.00     0.002 A 
ATOM      6  C8  UNL d   1       1.114   0.130   0.791  0.00  0.00     0.002 A 
ENDROOT
BRANCH   1   7
ATOM      7  C2  UNL d   1       3.217  -1.152   1.354  0.00  0.00     0.056 C 
BRANCH   7   8
ATOM      8  C1  UNL d   1       3.312  -1.094   2.882  0.00  0.00     0.007 C 
ATOM      9  C   UNL d   1       4.653  -0.571   3.381  0.00  0.00     0.009 C 
ENDBRANCH   7   8
ENDBRANCH   1   7
TORSDOF 2
ENDMDL
