MODEL 1
REMARK minimizedAffinity 2.89142156
REMARK minimizedRMSD -1
REMARK  2 active torsions:
REMARK  status: ('A' for Active; 'I' for Inactive)
REMARK    1  A    between atoms: C1_2  and  C2_3 
REMARK    2  A    between atoms: C2_3  and  C3_4 
ROOT
ATOM      1  C3  UNL d   1      -1.606  -5.113  -3.321  0.00  0.00    -0.075 A 
ATOM      2  C4  UNL d   1      -2.295  -5.220  -4.538  0.00  0.00     0.002 A 
ATOM      3  C5  UNL d   1      -1.598  -5.417  -5.731  0.00  0.00     0.002 A 
ATOM      4  C6  UNL d   1      -0.208  -5.500  -5.724  0.00  0.00    -0.004 A 
ATOM      5  C7  UNL d   1       0.488  -5.379  -4.523  0.00  0.00     0.002 A 
ATOM      6  C8  UNL d   1      -0.207  -5.186  -3.327  0.00  0.00     0.002 A 
ENDROOT
BRANCH   1   7
ATOM      7  C2  UNL d   1      -2.356  -4.929  -2.023  0.00  0.00     0.056 C 
BRANCH   7   8
ATOM      8  C1  UNL d   1      -1.566  -4.175  -0.948  0.00  0.00     0.007 C 
ATOM      9  C   UNL d   1      -2.219  -4.229   0.426  0.00  0.00     0.009 C 
ENDBRANCH   7   8
ENDBRANCH   1   7
TORSDOF 2
ENDMDL
