MODEL 1
REMARK minimizedAffinity -2.74991417
REMARK minimizedRMSD -1
REMARK  2 active torsions:
REMARK  status: ('A' for Active; 'I' for Inactive)
REMARK    1  A    between atoms: C1_2  and  C2_3 
REMARK    2  A    between atoms: C2_3  and  C3_4 
ROOT
ATOM      1  C3  UNL d   1       1.379   1.132   0.370  0.00  0.00    -0.075 A 
ATOM      2  C4  UNL d   1       2.165   1.956  -0.448  0.00  0.00     0.002 A 
ATOM      3  C5  UNL d   1       2.814   3.071   0.084  0.00  0.00     0.002 A 
ATOM      4  C6  UNL d   1       2.677   3.382   1.435  0.00  0.00    -0.004 A 
ATOM      5  C7  UNL d   1       1.885   2.579   2.254  0.00  0.00     0.002 A 
ATOM      6  C8  UNL d   1       1.239   1.461   1.725  0.00  0.00     0.002 A 
ENDROOT
BRANCH   1   7
ATOM      7  C2  UNL d   1       0.699  -0.093  -0.193  0.00  0.00     0.056 C 
BRANCH   7   8
ATOM      8  C1  UNL d   1      -0.690  -0.361   0.397  0.00  0.00     0.007 C 
ATOM      9  C   UNL d   1      -1.804  -0.302  -0.639  0.00  0.00     0.009 C 
ENDBRANCH   7   8
ENDBRANCH   1   7
TORSDOF 2
ENDMDL
