MODEL 1
REMARK minimizedAffinity -3.46971416
REMARK minimizedRMSD -1
REMARK  2 active torsions:
REMARK  status: ('A' for Active; 'I' for Inactive)
REMARK    1  A    between atoms: C1_2  and  C2_3 
REMARK    2  A    between atoms: C2_3  and  C3_4 
ROOT
ATOM      1  C3  UNL d   1       0.020  -0.257   0.220  0.00  0.00    -0.075 A 
ATOM      2  C4  UNL d   1      -0.596  -0.804   1.355  0.00  0.00     0.002 A 
ATOM      3  C5  UNL d   1      -1.947  -1.150   1.331  0.00  0.00     0.002 A 
ATOM      4  C6  UNL d   1      -2.701  -0.945   0.178  0.00  0.00    -0.004 A 
ATOM      5  C7  UNL d   1      -2.104  -0.388  -0.951  0.00  0.00     0.002 A 
ATOM      6  C8  UNL d   1      -0.751  -0.045  -0.931  0.00  0.00     0.002 A 
ENDROOT
BRANCH   1   7
ATOM      7  C2  UNL d   1       1.489   0.092   0.230  0.00  0.00     0.056 C 
BRANCH   7   8
ATOM      8  C1  UNL d   1       1.888   1.074   1.336  0.00  0.00     0.007 C 
ATOM      9  C   UNL d   1       2.738   2.233   0.832  0.00  0.00     0.009 C 
ENDBRANCH   7   8
ENDBRANCH   1   7
TORSDOF 2
ENDMDL
