MODEL 1
REMARK minimizedAffinity -2.37746167
REMARK minimizedRMSD -1
REMARK  2 active torsions:
REMARK  status: ('A' for Active; 'I' for Inactive)
REMARK    1  A    between atoms: C1_2  and  C2_3 
REMARK    2  A    between atoms: C2_3  and  C3_4 
ROOT
ATOM      1  C3  UNL d   1      -0.014   1.658   0.793  0.00  0.00    -0.075 A 
ATOM      2  C4  UNL d   1       0.909   0.636   0.527  0.00  0.00     0.002 A 
ATOM      3  C5  UNL d   1       0.511  -0.701   0.548  0.00  0.00     0.002 A 
ATOM      4  C6  UNL d   1      -0.809  -1.033   0.844  0.00  0.00    -0.004 A 
ATOM      5  C7  UNL d   1      -1.731  -0.027   1.126  0.00  0.00     0.002 A 
ATOM      6  C8  UNL d   1      -1.336   1.312   1.101  0.00  0.00     0.002 A 
ENDROOT
BRANCH   1   7
ATOM      7  C2  UNL d   1       0.403   3.108   0.743  0.00  0.00     0.056 C 
BRANCH   7   8
ATOM      8  C1  UNL d   1       1.220   3.564   1.957  0.00  0.00     0.007 C 
ATOM      9  C   UNL d   1       2.725   3.471   1.737  0.00  0.00     0.009 C 
ENDBRANCH   7   8
ENDBRANCH   1   7
TORSDOF 2
ENDMDL
