MODEL 1
REMARK minimizedAffinity -4.19810438
REMARK minimizedRMSD -1
REMARK  2 active torsions:
REMARK  status: ('A' for Active; 'I' for Inactive)
REMARK    1  A    between atoms: C1_2  and  C2_3 
REMARK    2  A    between atoms: C2_3  and  C3_4 
ROOT
ATOM      1  C3  UNL d   1       1.830   1.031   1.305  0.00  0.00    -0.075 A 
ATOM      2  C4  UNL d   1       2.727   1.072   2.383  0.00  0.00     0.002 A 
ATOM      3  C5  UNL d   1       2.912   2.251   3.106  0.00  0.00     0.002 A 
ATOM      4  C6  UNL d   1       2.214   3.404   2.754  0.00  0.00    -0.004 A 
ATOM      5  C7  UNL d   1       1.334   3.380   1.675  0.00  0.00     0.002 A 
ATOM      6  C8  UNL d   1       1.143   2.200   0.953  0.00  0.00     0.002 A 
ENDROOT
BRANCH   1   7
ATOM      7  C2  UNL d   1       1.603  -0.249   0.538  0.00  0.00     0.056 C 
BRANCH   7   8
ATOM      8  C1  UNL d   1       0.458  -1.109   1.085  0.00  0.00     0.007 C 
ATOM      9  C   UNL d   1      -0.908  -0.698   0.552  0.00  0.00     0.009 C 
ENDBRANCH   7   8
ENDBRANCH   1   7
TORSDOF 2
ENDMDL
