MODEL 1
REMARK minimizedAffinity -3.21088123
REMARK minimizedRMSD -1
REMARK  2 active torsions:
REMARK  status: ('A' for Active; 'I' for Inactive)
REMARK    1  A    between atoms: C1_2  and  C2_3 
REMARK    2  A    between atoms: C2_3  and  C3_4 
ROOT
ATOM      1  C3  UNL d   1      -0.203  -0.463  -0.659  0.00  0.00    -0.075 A 
ATOM      2  C4  UNL d   1      -0.264  -0.854   0.687  0.00  0.00     0.002 A 
ATOM      3  C5  UNL d   1      -1.475  -1.253   1.254  0.00  0.00     0.002 A 
ATOM      4  C6  UNL d   1      -2.639  -1.257   0.488  0.00  0.00    -0.004 A 
ATOM      5  C7  UNL d   1      -2.593  -0.855  -0.845  0.00  0.00     0.002 A 
ATOM      6  C8  UNL d   1      -1.382  -0.459  -1.416  0.00  0.00     0.002 A 
ENDROOT
BRANCH   1   7
ATOM      7  C2  UNL d   1       1.109  -0.058  -1.287  0.00  0.00     0.056 C 
BRANCH   7   8
ATOM      8  C1  UNL d   1       1.397  -0.744  -2.626  0.00  0.00     0.007 C 
ATOM      9  C   UNL d   1       2.879  -0.774  -2.979  0.00  0.00     0.009 C 
ENDBRANCH   7   8
ENDBRANCH   1   7
TORSDOF 2
ENDMDL
