MODEL 1
REMARK minimizedAffinity -1.71954823
REMARK minimizedRMSD -1
REMARK  2 active torsions:
REMARK  status: ('A' for Active; 'I' for Inactive)
REMARK    1  A    between atoms: C1_2  and  C2_3 
REMARK    2  A    between atoms: C2_3  and  C3_4 
ROOT
ATOM      1  C3  UNL d   1      -0.512  -0.130  -1.521  0.00  0.00    -0.075 A 
ATOM      2  C4  UNL d   1       0.004   0.101  -0.237  0.00  0.00     0.002 A 
ATOM      3  C5  UNL d   1      -0.767  -0.169   0.894  0.00  0.00     0.002 A 
ATOM      4  C6  UNL d   1      -2.063  -0.661   0.757  0.00  0.00    -0.004 A 
ATOM      5  C7  UNL d   1      -2.591  -0.878  -0.514  0.00  0.00     0.002 A 
ATOM      6  C8  UNL d   1      -1.821  -0.613  -1.648  0.00  0.00     0.002 A 
ENDROOT
BRANCH   1   7
ATOM      7  C2  UNL d   1       0.328   0.132  -2.749  0.00  0.00     0.056 C 
BRANCH   7   8
ATOM      8  C1  UNL d   1       1.795  -0.285  -2.602  0.00  0.00     0.007 C 
ATOM      9  C   UNL d   1       2.388  -0.858  -3.882  0.00  0.00     0.009 C 
ENDBRANCH   7   8
ENDBRANCH   1   7
TORSDOF 2
ENDMDL
