MODEL 1
REMARK minimizedAffinity -5.77074242
REMARK minimizedRMSD -1
REMARK  2 active torsions:
REMARK  status: ('A' for Active; 'I' for Inactive)
REMARK    1  A    between atoms: C1_2  and  C2_3 
REMARK    2  A    between atoms: C2_3  and  C3_4 
ROOT
ATOM      1  C3  UNL d   1      -0.652   0.104  -1.366  0.00  0.00    -0.075 A 
ATOM      2  C4  UNL d   1      -1.821  -0.643  -1.572  0.00  0.00     0.002 A 
ATOM      3  C5  UNL d   1      -2.725  -0.848  -0.529  0.00  0.00     0.002 A 
ATOM      4  C6  UNL d   1      -2.467  -0.319   0.734  0.00  0.00    -0.004 A 
ATOM      5  C7  UNL d   1      -1.301   0.411   0.955  0.00  0.00     0.002 A 
ATOM      6  C8  UNL d   1      -0.397   0.621  -0.089  0.00  0.00     0.002 A 
ENDROOT
BRANCH   1   7
ATOM      7  C2  UNL d   1       0.315   0.354  -2.498  0.00  0.00     0.056 C 
BRANCH   7   8
ATOM      8  C1  UNL d   1       1.728  -0.180  -2.241  0.00  0.00     0.007 C 
ATOM      9  C   UNL d   1       2.317  -0.917  -3.436  0.00  0.00     0.009 C 
ENDBRANCH   7   8
ENDBRANCH   1   7
TORSDOF 2
ENDMDL
