MODEL 1
REMARK minimizedAffinity -2.72927761
REMARK minimizedRMSD -1
REMARK  2 active torsions:
REMARK  status: ('A' for Active; 'I' for Inactive)
REMARK    1  A    between atoms: C1_2  and  C2_3 
REMARK    2  A    between atoms: C2_3  and  C3_4 
ROOT
ATOM      1  C3  UNL d   1       1.097  -0.231  -0.855  0.00  0.00    -0.075 A 
ATOM      2  C4  UNL d   1       1.369  -0.752   0.418  0.00  0.00     0.002 A 
ATOM      3  C5  UNL d   1       0.328  -1.092   1.282  0.00  0.00     0.002 A 
ATOM      4  C6  UNL d   1      -0.995  -0.906   0.890  0.00  0.00    -0.004 A 
ATOM      5  C7  UNL d   1      -1.278  -0.372  -0.366  0.00  0.00     0.002 A 
ATOM      6  C8  UNL d   1      -0.238  -0.036  -1.234  0.00  0.00     0.002 A 
ENDROOT
BRANCH   1   7
ATOM      7  C2  UNL d   1       2.218   0.112  -1.806  0.00  0.00     0.056 C 
BRANCH   7   8
ATOM      8  C1  UNL d   1       2.471  -0.951  -2.881  0.00  0.00     0.007 C 
ATOM      9  C   UNL d   1       2.355  -0.409  -4.300  0.00  0.00     0.009 C 
ENDBRANCH   7   8
ENDBRANCH   1   7
TORSDOF 2
ENDMDL
