MODEL 1
REMARK minimizedAffinity -3.83594489
REMARK minimizedRMSD -1
REMARK  2 active torsions:
REMARK  status: ('A' for Active; 'I' for Inactive)
REMARK    1  A    between atoms: C1_2  and  C2_3 
REMARK    2  A    between atoms: C2_3  and  C3_4 
ROOT
ATOM      1  C3  UNL d   1       0.120   0.141  -1.751  0.00  0.00    -0.075 A 
ATOM      2  C4  UNL d   1       1.067   0.103  -0.716  0.00  0.00     0.002 A 
ATOM      3  C5  UNL d   1       2.408  -0.167  -0.993  0.00  0.00     0.002 A 
ATOM      4  C6  UNL d   1       2.817  -0.411  -2.302  0.00  0.00    -0.004 A 
ATOM      5  C7  UNL d   1       1.882  -0.393  -3.335  0.00  0.00     0.002 A 
ATOM      6  C8  UNL d   1       0.541  -0.119  -3.062  0.00  0.00     0.002 A 
ENDROOT
BRANCH   1   7
ATOM      7  C2  UNL d   1      -1.327   0.461  -1.462  0.00  0.00     0.056 C 
BRANCH   7   8
ATOM      8  C1  UNL d   1      -2.011  -0.537  -0.521  0.00  0.00     0.007 C 
ATOM      9  C   UNL d   1      -3.392  -0.963  -1.000  0.00  0.00     0.009 C 
ENDBRANCH   7   8
ENDBRANCH   1   7
TORSDOF 2
ENDMDL
