MODEL 1
REMARK minimizedAffinity -5.09256458
REMARK minimizedRMSD -1
REMARK  2 active torsions:
REMARK  status: ('A' for Active; 'I' for Inactive)
REMARK    1  A    between atoms: C1_2  and  C2_3 
REMARK    2  A    between atoms: C2_3  and  C3_4 
ROOT
ATOM      1  C3  UNL d   1      -0.383  -0.170  -1.250  0.00  0.00    -0.075 A 
ATOM      2  C4  UNL d   1      -1.759  -0.440  -1.229  0.00  0.00     0.002 A 
ATOM      3  C5  UNL d   1      -2.399  -0.765  -0.033  0.00  0.00     0.002 A 
ATOM      4  C6  UNL d   1      -1.672  -0.834   1.153  0.00  0.00    -0.004 A 
ATOM      5  C7  UNL d   1      -0.301  -0.584   1.141  0.00  0.00     0.002 A 
ATOM      6  C8  UNL d   1       0.341  -0.254  -0.053  0.00  0.00     0.002 A 
ENDROOT
BRANCH   1   7
ATOM      7  C2  UNL d   1       0.310   0.212  -2.536  0.00  0.00     0.056 C 
BRANCH   7   8
ATOM      8  C1  UNL d   1       1.737  -0.331  -2.661  0.00  0.00     0.007 C 
ATOM      9  C   UNL d   1       2.083  -0.793  -4.070  0.00  0.00     0.009 C 
ENDBRANCH   7   8
ENDBRANCH   1   7
TORSDOF 2
ENDMDL
