MODEL 1
REMARK minimizedAffinity -5.11658001
REMARK minimizedRMSD -1
REMARK  2 active torsions:
REMARK  status: ('A' for Active; 'I' for Inactive)
REMARK    1  A    between atoms: C1_2  and  C2_3 
REMARK    2  A    between atoms: C2_3  and  C3_4 
ROOT
ATOM      1  C3  UNL d   1       0.451  -0.421  -1.201  0.00  0.00    -0.075 A 
ATOM      2  C4  UNL d   1       0.379  -0.532   0.195  0.00  0.00     0.002 A 
ATOM      3  C5  UNL d   1      -0.855  -0.510   0.845  0.00  0.00     0.002 A 
ATOM      4  C6  UNL d   1      -2.030  -0.366   0.111  0.00  0.00    -0.004 A 
ATOM      5  C7  UNL d   1      -1.970  -0.237  -1.275  0.00  0.00     0.002 A 
ATOM      6  C8  UNL d   1      -0.737  -0.264  -1.929  0.00  0.00     0.002 A 
ENDROOT
BRANCH   1   7
ATOM      7  C2  UNL d   1       1.781  -0.474  -1.913  0.00  0.00     0.056 C 
BRANCH   7   8
ATOM      8  C1  UNL d   1       1.698  -0.993  -3.352  0.00  0.00     0.007 C 
ATOM      9  C   UNL d   1       3.063  -1.209  -3.993  0.00  0.00     0.009 C 
ENDBRANCH   7   8
ENDBRANCH   1   7
TORSDOF 2
ENDMDL
