MODEL 1
REMARK minimizedAffinity -4.03480768
REMARK minimizedRMSD -1
REMARK  2 active torsions:
REMARK  status: ('A' for Active; 'I' for Inactive)
REMARK    1  A    between atoms: C1_2  and  C2_3 
REMARK    2  A    between atoms: C2_3  and  C3_4 
ROOT
ATOM      1  C3  UNL d   1      -0.813  -0.502   0.474  0.00  0.00    -0.075 A 
ATOM      2  C4  UNL d   1      -1.601  -1.233   1.376  0.00  0.00     0.002 A 
ATOM      3  C5  UNL d   1      -2.939  -1.506   1.087  0.00  0.00     0.002 A 
ATOM      4  C6  UNL d   1      -3.507  -1.045  -0.098  0.00  0.00    -0.004 A 
ATOM      5  C7  UNL d   1      -2.738  -0.304  -0.993  0.00  0.00     0.002 A 
ATOM      6  C8  UNL d   1      -1.399  -0.033  -0.709  0.00  0.00     0.002 A 
ENDROOT
BRANCH   1   7
ATOM      7  C2  UNL d   1       0.643  -0.229   0.767  0.00  0.00     0.056 C 
BRANCH   7   8
ATOM      8  C1  UNL d   1       1.527  -1.480   0.758  0.00  0.00     0.007 C 
ATOM      9  C   UNL d   1       1.667  -2.126   2.129  0.00  0.00     0.009 C 
ENDBRANCH   7   8
ENDBRANCH   1   7
TORSDOF 2
ENDMDL
