MODEL 1
REMARK minimizedAffinity -0.924486279
REMARK minimizedRMSD -1
REMARK  2 active torsions:
REMARK  status: ('A' for Active; 'I' for Inactive)
REMARK    1  A    between atoms: C1_2  and  C2_3 
REMARK    2  A    between atoms: C2_3  and  C3_4 
ROOT
ATOM      1  C3  UNL d   1       0.621  -0.023   0.701  0.00  0.00    -0.075 A 
ATOM      2  C4  UNL d   1      -0.498   0.235  -0.105  0.00  0.00     0.002 A 
ATOM      3  C5  UNL d   1      -1.687  -0.468   0.088  0.00  0.00     0.002 A 
ATOM      4  C6  UNL d   1      -1.770  -1.444   1.079  0.00  0.00    -0.004 A 
ATOM      5  C7  UNL d   1      -0.660  -1.721   1.874  0.00  0.00     0.002 A 
ATOM      6  C8  UNL d   1       0.530  -1.015   1.686  0.00  0.00     0.002 A 
ENDROOT
BRANCH   1   7
ATOM      7  C2  UNL d   1       1.902   0.755   0.517  0.00  0.00     0.056 C 
BRANCH   7   8
ATOM      8  C1  UNL d   1       2.225   1.707   1.673  0.00  0.00     0.007 C 
ATOM      9  C   UNL d   1       2.822   3.030   1.213  0.00  0.00     0.009 C 
ENDBRANCH   7   8
ENDBRANCH   1   7
TORSDOF 2
ENDMDL
