MODEL 1
REMARK minimizedAffinity -4.4118886
REMARK minimizedRMSD -1
REMARK  2 active torsions:
REMARK  status: ('A' for Active; 'I' for Inactive)
REMARK    1  A    between atoms: C1_2  and  C2_3 
REMARK    2  A    between atoms: C2_3  and  C3_4 
ROOT
ATOM      1  C3  UNL d   1      -0.112  -0.217   0.548  0.00  0.00    -0.075 A 
ATOM      2  C4  UNL d   1      -1.351  -0.057  -0.089  0.00  0.00     0.002 A 
ATOM      3  C5  UNL d   1      -2.401  -0.937   0.173  0.00  0.00     0.002 A 
ATOM      4  C6  UNL d   1      -2.224  -1.992   1.065  0.00  0.00    -0.004 A 
ATOM      5  C7  UNL d   1      -0.992  -2.171   1.691  0.00  0.00     0.002 A 
ATOM      6  C8  UNL d   1       0.059  -1.289   1.434  0.00  0.00     0.002 A 
ENDROOT
BRANCH   1   7
ATOM      7  C2  UNL d   1       1.019   0.749   0.291  0.00  0.00     0.056 C 
BRANCH   7   8
ATOM      8  C1  UNL d   1       1.546   1.443   1.552  0.00  0.00     0.007 C 
ATOM      9  C   UNL d   1       1.944   2.894   1.317  0.00  0.00     0.009 C 
ENDBRANCH   7   8
ENDBRANCH   1   7
TORSDOF 2
ENDMDL
