MODEL 1
REMARK minimizedAffinity -4.52866507
REMARK minimizedRMSD -1
REMARK  2 active torsions:
REMARK  status: ('A' for Active; 'I' for Inactive)
REMARK    1  A    between atoms: C1_2  and  C2_3 
REMARK    2  A    between atoms: C2_3  and  C3_4 
ROOT
ATOM      1  C3  UNL d   1      -0.971  -0.285  -1.344  0.00  0.00    -0.075 A 
ATOM      2  C4  UNL d   1      -2.167  -0.909  -1.728  0.00  0.00     0.002 A 
ATOM      3  C5  UNL d   1      -3.096  -1.311  -0.767  0.00  0.00     0.002 A 
ATOM      4  C6  UNL d   1      -2.838  -1.103   0.586  0.00  0.00    -0.004 A 
ATOM      5  C7  UNL d   1      -1.646  -0.499   0.979  0.00  0.00     0.002 A 
ATOM      6  C8  UNL d   1      -0.716  -0.093   0.020  0.00  0.00     0.002 A 
ENDROOT
BRANCH   1   7
ATOM      7  C2  UNL d   1       0.025   0.178  -2.380  0.00  0.00     0.056 C 
BRANCH   7   8
ATOM      8  C1  UNL d   1       1.451  -0.331  -2.145  0.00  0.00     0.007 C 
ATOM      9  C   UNL d   1       2.126  -0.833  -3.414  0.00  0.00     0.009 C 
ENDBRANCH   7   8
ENDBRANCH   1   7
TORSDOF 2
ENDMDL
