MODEL 1
REMARK minimizedAffinity 2.67487621
REMARK minimizedRMSD -1
REMARK  1 active torsions:
REMARK  status: ('A' for Active; 'I' for Inactive)
REMARK    1  A    between atoms: C3_4  and  O_7 
ROOT
ATOM      1  C   UNL d   1       1.393   2.897   2.379  0.00  0.00    -0.033 A 
ATOM      2  C1  UNL d   1       2.213   3.882   1.827  0.00  0.00     0.039 A 
ATOM      3  C2  UNL d   1       1.753   4.661   0.763  0.00  0.00    -0.080 A 
ATOM      4  C3  UNL d   1       0.472   4.445   0.262  0.00  0.00     0.150 A 
ATOM      5  C4  UNL d   1      -0.352   3.468   0.810  0.00  0.00    -0.007 A 
ATOM      6  C5  UNL d   1       0.109   2.691   1.871  0.00  0.00     0.039 A 
ENDROOT
BRANCH   4   7
ATOM      7  O   UNL d   1      -0.019   5.177  -0.778  0.00  0.00    -0.526 OA
ATOM      8  H5  UNL d   1       0.671   5.794  -1.073  0.00  0.00     0.418 HD
ENDBRANCH   4   7
TORSDOF 1
ENDMDL
