MODEL 1
REMARK minimizedAffinity 4.52255154
REMARK minimizedRMSD -1
REMARK  1 active torsions:
REMARK  status: ('A' for Active; 'I' for Inactive)
REMARK    1  A    between atoms: C3_4  and  O_7 
ROOT
ATOM      1  C   UNL d   1      -5.995   4.489  -5.981  0.00  0.00    -0.033 A 
ATOM      2  C1  UNL d   1      -5.249   5.669  -5.998  0.00  0.00     0.039 A 
ATOM      3  C2  UNL d   1      -4.432   5.996  -4.914  0.00  0.00    -0.080 A 
ATOM      4  C3  UNL d   1      -4.370   5.136  -3.821  0.00  0.00     0.150 A 
ATOM      5  C4  UNL d   1      -5.107   3.956  -3.800  0.00  0.00    -0.007 A 
ATOM      6  C5  UNL d   1      -5.923   3.632  -4.883  0.00  0.00     0.039 A 
ENDROOT
BRANCH   4   7
ATOM      7  O   UNL d   1      -3.591   5.415  -2.738  0.00  0.00    -0.526 OA
ATOM      8  H5  UNL d   1      -3.162   6.275  -2.881  0.00  0.00     0.418 HD
ENDBRANCH   4   7
TORSDOF 1
ENDMDL
