MODEL 1
REMARK minimizedAffinity 0.161964551
REMARK minimizedRMSD -1
REMARK  1 active torsions:
REMARK  status: ('A' for Active; 'I' for Inactive)
REMARK    1  A    between atoms: C3_4  and  O_7 
ROOT
ATOM      1  C   UNL d   1      -2.835  -5.997  -5.997  0.00  0.00    -0.033 A 
ATOM      2  C1  UNL d   1      -4.226  -5.998  -5.882  0.00  0.00     0.039 A 
ATOM      3  C2  UNL d   1      -4.825  -5.998  -4.620  0.00  0.00    -0.080 A 
ATOM      4  C3  UNL d   1      -4.021  -5.995  -3.483  0.00  0.00     0.150 A 
ATOM      5  C4  UNL d   1      -2.635  -5.990  -3.590  0.00  0.00    -0.007 A 
ATOM      6  C5  UNL d   1      -2.039  -5.991  -4.851  0.00  0.00     0.039 A 
ENDROOT
BRANCH   4   7
ATOM      7  O   UNL d   1      -4.560  -6.000  -2.231  0.00  0.00    -0.526 OA
ATOM      8  H5  UNL d   1      -5.527  -6.033  -2.312  0.00  0.00     0.418 HD
ENDBRANCH   4   7
TORSDOF 1
ENDMDL
