MODEL 1
REMARK minimizedAffinity 4.40289736
REMARK minimizedRMSD -1
REMARK  1 active torsions:
REMARK  status: ('A' for Active; 'I' for Inactive)
REMARK    1  A    between atoms: C3_4  and  O_7 
ROOT
ATOM      1  C   UNL d   1      -0.156   3.786  -0.449  0.00  0.00    -0.033 A 
ATOM      2  C1  UNL d   1       0.571   4.234   0.657  0.00  0.00     0.039 A 
ATOM      3  C2  UNL d   1       0.528   3.523   1.857  0.00  0.00    -0.080 A 
ATOM      4  C3  UNL d   1      -0.242   2.366   1.939  0.00  0.00     0.150 A 
ATOM      5  C4  UNL d   1      -0.965   1.912   0.841  0.00  0.00    -0.007 A 
ATOM      6  C5  UNL d   1      -0.922   2.624  -0.357  0.00  0.00     0.039 A 
ENDROOT
BRANCH   4   7
ATOM      7  O   UNL d   1      -0.318   1.641   3.091  0.00  0.00    -0.526 OA
ATOM      8  H5  UNL d   1       0.209   2.090   3.773  0.00  0.00     0.418 HD
ENDBRANCH   4   7
TORSDOF 1
ENDMDL
