MODEL 1
REMARK minimizedAffinity -4.41461182
REMARK minimizedRMSD -1
REMARK  2 active torsions:
REMARK  status: ('A' for Active; 'I' for Inactive)
REMARK    1  A    between atoms: C2'_3  and  C1'_4 
REMARK    2  A    between atoms: C1'_4  and  C1_5 
ROOT
ATOM      1  C1  I4B d   1       0.854  -0.555   0.144  0.00  0.00    -0.075 A 
ATOM      2  C2  I4B d   1       0.060  -0.384   1.251  0.00  0.00     0.003 A 
ATOM      3  C3  I4B d   1       0.536  -0.750   2.533  0.00  0.00     0.002 A 
ATOM      4  C4  I4B d   1       1.783  -1.327   2.656  0.00  0.00    -0.004 A 
ATOM      5  C5  I4B d   1       2.596  -1.480   1.536  0.00  0.00     0.002 A 
ATOM      6  C6  I4B d   1       2.134  -1.080   0.274  0.00  0.00     0.003 A 
ENDROOT
BRANCH   1   7
ATOM      7  C1' I4B d   1       0.308  -0.188  -1.199  0.00  0.00     0.060 C 
BRANCH   7   8
ATOM      8  C2' I4B d   1      -0.306   1.193  -1.091  0.00  0.00    -0.013 C 
ATOM      9  C4' I4B d   1       0.480   2.203  -1.885  0.00  0.00     0.013 C 
ATOM     10  C3' I4B d   1      -1.723   1.108  -1.576  0.00  0.00     0.013 C 
ENDBRANCH   7   8
ENDBRANCH   1   7
TORSDOF 2
ENDMDL
