MODEL 1
REMARK minimizedAffinity -6.10097885
REMARK minimizedRMSD -1
REMARK  2 active torsions:
REMARK  status: ('A' for Active; 'I' for Inactive)
REMARK    1  A    between atoms: C2'_3  and  C1'_4 
REMARK    2  A    between atoms: C1'_4  and  C1_5 
ROOT
ATOM      1  C1  I4B d   1       0.884  -0.528   1.349  0.00  0.00    -0.075 A 
ATOM      2  C2  I4B d   1       1.570  -1.235   0.393  0.00  0.00     0.003 A 
ATOM      3  C3  I4B d   1       2.632  -2.093   0.767  0.00  0.00     0.002 A 
ATOM      4  C4  I4B d   1       3.005  -2.176   2.093  0.00  0.00    -0.004 A 
ATOM      5  C5  I4B d   1       2.294  -1.476   3.063  0.00  0.00     0.002 A 
ATOM      6  C6  I4B d   1       1.218  -0.657   2.691  0.00  0.00     0.003 A 
ENDROOT
BRANCH   1   7
ATOM      7  C1' I4B d   1      -0.211   0.394   0.916  0.00  0.00     0.060 C 
BRANCH   7   8
ATOM      8  C2' I4B d   1      -1.164  -0.391   0.039  0.00  0.00    -0.013 C 
ATOM      9  C4' I4B d   1      -2.493  -0.591   0.718  0.00  0.00     0.013 C 
ATOM     10  C3' I4B d   1      -1.323   0.353  -1.254  0.00  0.00     0.013 C 
ENDBRANCH   7   8
ENDBRANCH   1   7
TORSDOF 2
ENDMDL
