MODEL 1
REMARK minimizedAffinity -4.62427759
REMARK minimizedRMSD -1
REMARK  2 active torsions:
REMARK  status: ('A' for Active; 'I' for Inactive)
REMARK    1  A    between atoms: C2'_3  and  C1'_4 
REMARK    2  A    between atoms: C1'_4  and  C1_5 
ROOT
ATOM      1  C1  I4B d   1       0.707  -0.208   1.370  0.00  0.00    -0.075 A 
ATOM      2  C2  I4B d   1       1.203  -0.205   0.090  0.00  0.00     0.003 A 
ATOM      3  C3  I4B d   1       0.333  -0.021  -1.011  0.00  0.00     0.002 A 
ATOM      4  C4  I4B d   1      -1.024   0.104  -0.792  0.00  0.00    -0.004 A 
ATOM      5  C5  I4B d   1      -1.523   0.123   0.507  0.00  0.00     0.002 A 
ATOM      6  C6  I4B d   1      -0.651  -0.022   1.596  0.00  0.00     0.003 A 
ENDROOT
BRANCH   1   7
ATOM      7  C1' I4B d   1       1.650  -0.438   2.508  0.00  0.00     0.060 C 
BRANCH   7   8
ATOM      8  C2' I4B d   1       2.143  -1.868   2.425  0.00  0.00    -0.013 C 
ATOM      9  C4' I4B d   1       0.994  -2.836   2.330  0.00  0.00     0.013 C 
ATOM     10  C3' I4B d   1       3.044  -1.978   1.231  0.00  0.00     0.013 C 
ENDBRANCH   7   8
ENDBRANCH   1   7
TORSDOF 2
ENDMDL
