MODEL 1
REMARK minimizedAffinity -6.27184248
REMARK minimizedRMSD -1
REMARK  2 active torsions:
REMARK  status: ('A' for Active; 'I' for Inactive)
REMARK    1  A    between atoms: C2'_3  and  C1'_4 
REMARK    2  A    between atoms: C1'_4  and  C1_5 
ROOT
ATOM      1  C1  I4B d   1       0.343  -0.210   0.048  0.00  0.00    -0.075 A 
ATOM      2  C2  I4B d   1      -0.669  -0.031   0.958  0.00  0.00     0.003 A 
ATOM      3  C3  I4B d   1      -0.423  -0.210   2.341  0.00  0.00     0.002 A 
ATOM      4  C4  I4B d   1       0.827  -0.615   2.762  0.00  0.00    -0.004 A 
ATOM      5  C5  I4B d   1       1.858  -0.773   1.840  0.00  0.00     0.002 A 
ATOM      6  C6  I4B d   1       1.618  -0.558   0.475  0.00  0.00     0.003 A 
ENDROOT
BRANCH   1   7
ATOM      7  C1' I4B d   1       0.040  -0.044  -1.408  0.00  0.00     0.060 C 
BRANCH   7   8
ATOM      8  C2' I4B d   1      -0.596   1.317  -1.600  0.00  0.00    -0.013 C 
ATOM      9  C4' I4B d   1       0.408   2.321  -2.104  0.00  0.00     0.013 C 
ATOM     10  C3' I4B d   1      -1.737   1.164  -2.561  0.00  0.00     0.013 C 
ENDBRANCH   7   8
ENDBRANCH   1   7
TORSDOF 2
ENDMDL
