MODEL 1
REMARK minimizedAffinity -4.6214962
REMARK minimizedRMSD -1
REMARK  2 active torsions:
REMARK  status: ('A' for Active; 'I' for Inactive)
REMARK    1  A    between atoms: C2'_3  and  C1'_4 
REMARK    2  A    between atoms: C1'_4  and  C1_5 
ROOT
ATOM      1  C1  I4B d   1       0.188  -0.486   1.038  0.00  0.00    -0.075 A 
ATOM      2  C2  I4B d   1       1.511  -0.727   0.764  0.00  0.00     0.003 A 
ATOM      3  C3  I4B d   1       2.294  -1.502   1.654  0.00  0.00     0.002 A 
ATOM      4  C4  I4B d   1       1.730  -1.971   2.823  0.00  0.00    -0.004 A 
ATOM      5  C5  I4B d   1       0.382  -1.745   3.088  0.00  0.00     0.002 A 
ATOM      6  C6  I4B d   1      -0.397  -1.009   2.185  0.00  0.00     0.003 A 
ENDROOT
BRANCH   1   7
ATOM      7  C1' I4B d   1      -0.601   0.364   0.093  0.00  0.00     0.060 C 
BRANCH   7   8
ATOM      8  C2' I4B d   1       0.128   0.385  -1.235  0.00  0.00    -0.013 C 
ATOM      9  C4' I4B d   1      -0.061  -0.910  -1.981  0.00  0.00     0.013 C 
ATOM     10  C3' I4B d   1      -0.390   1.548  -2.028  0.00  0.00     0.013 C 
ENDBRANCH   7   8
ENDBRANCH   1   7
TORSDOF 2
ENDMDL
