MODEL 1
REMARK minimizedAffinity -6.19642258
REMARK minimizedRMSD -1
REMARK  2 active torsions:
REMARK  status: ('A' for Active; 'I' for Inactive)
REMARK    1  A    between atoms: C2'_3  and  C1'_4 
REMARK    2  A    between atoms: C1'_4  and  C1_5 
ROOT
ATOM      1  C1  I4B d   1       0.317  -0.537   0.940  0.00  0.00    -0.075 A 
ATOM      2  C2  I4B d   1       0.177  -0.042   2.213  0.00  0.00     0.003 A 
ATOM      3  C3  I4B d   1       1.108  -0.392   3.220  0.00  0.00     0.002 A 
ATOM      4  C4  I4B d   1       2.129  -1.274   2.926  0.00  0.00    -0.004 A 
ATOM      5  C5  I4B d   1       2.282  -1.756   1.629  0.00  0.00     0.002 A 
ATOM      6  C6  I4B d   1       1.378  -1.376   0.627  0.00  0.00     0.003 A 
ENDROOT
BRANCH   1   7
ATOM      7  C1' I4B d   1      -0.704  -0.173  -0.091  0.00  0.00     0.060 C 
BRANCH   7   8
ATOM      8  C2' I4B d   1       0.031   0.243  -1.349  0.00  0.00    -0.013 C 
ATOM      9  C4' I4B d   1       0.078  -0.881  -2.350  0.00  0.00     0.013 C 
ATOM     10  C3' I4B d   1      -0.666   1.444  -1.915  0.00  0.00     0.013 C 
ENDBRANCH   7   8
ENDBRANCH   1   7
TORSDOF 2
ENDMDL
