MODEL 1
REMARK minimizedAffinity -4.38027382
REMARK minimizedRMSD -1
REMARK  2 active torsions:
REMARK  status: ('A' for Active; 'I' for Inactive)
REMARK    1  A    between atoms: C2'_3  and  C1'_4 
REMARK    2  A    between atoms: C1'_4  and  C1_5 
ROOT
ATOM      1  C1  I4B d   1       0.045  -0.079   0.260  0.00  0.00    -0.075 A 
ATOM      2  C2  I4B d   1       1.265  -0.662   0.495  0.00  0.00     0.003 A 
ATOM      3  C3  I4B d   1       1.646  -1.012   1.813  0.00  0.00     0.002 A 
ATOM      4  C4  I4B d   1       0.802  -0.718   2.865  0.00  0.00    -0.004 A 
ATOM      5  C5  I4B d   1      -0.444  -0.148   2.623  0.00  0.00     0.002 A 
ATOM      6  C6  I4B d   1      -0.831   0.163   1.311  0.00  0.00     0.003 A 
ENDROOT
BRANCH   1   7
ATOM      7  C1' I4B d   1      -0.311   0.308  -1.140  0.00  0.00     0.060 C 
BRANCH   7   8
ATOM      8  C2' I4B d   1      -0.523   1.808  -1.170  0.00  0.00    -0.013 C 
ATOM      9  C4' I4B d   1       0.645   2.511  -1.812  0.00  0.00     0.013 C 
ATOM     10  C3' I4B d   1      -1.795   2.081  -1.915  0.00  0.00     0.013 C 
ENDBRANCH   7   8
ENDBRANCH   1   7
TORSDOF 2
ENDMDL
