MODEL 1
REMARK minimizedAffinity -5.06196642
REMARK minimizedRMSD -1
REMARK  3 active torsions:
REMARK  status: ('A' for Active; 'I' for Inactive)
REMARK    1  A    between atoms: C3'_2  and  C2'_3 
REMARK    2  A    between atoms: C2'_3  and  C1'_4 
REMARK    3  A    between atoms: C1'_4  and  C1_5 
ROOT
ATOM      1  C1  N4B d   1       0.437  -0.587   0.054  0.00  0.00    -0.075 A 
ATOM      2  C2  N4B d   1       1.650  -1.257  -0.219  0.00  0.00     0.002 A 
ATOM      3  C3  N4B d   1       2.397  -1.772   0.813  0.00  0.00     0.002 A 
ATOM      4  C4  N4B d   1       1.962  -1.613   2.120  0.00  0.00    -0.004 A 
ATOM      5  C5  N4B d   1       0.777  -0.987   2.373  0.00  0.00     0.002 A 
ATOM      6  C6  N4B d   1       0.014  -0.468   1.346  0.00  0.00     0.002 A 
ENDROOT
BRANCH   1   7
ATOM      7  C1' N4B d   1      -0.371   0.067  -1.034  0.00  0.00     0.057 C 
BRANCH   7   8
ATOM      8  C2' N4B d   1      -0.120   1.572  -1.008  0.00  0.00     0.009 C 
BRANCH   8   9
ATOM      9  C3' N4B d   1      -0.797   2.281  -2.168  0.00  0.00     0.004 C 
ATOM     10  C4' N4B d   1      -0.148   3.589  -2.507  0.00  0.00     0.003 C 
ENDBRANCH   8   9
ENDBRANCH   7   8
ENDBRANCH   1   7
TORSDOF 3
ENDMDL
