MODEL 1
REMARK minimizedAffinity 3.51719356
REMARK minimizedRMSD -1
REMARK  0 active torsions:
REMARK  status: ('A' for Active; 'I' for Inactive)
ROOT
ATOM      1  C   UNL d   1      -0.103  -5.998   1.927  0.00  0.00     0.077 C 
ATOM      2  C1  UNL d   1       0.851  -5.932   3.083  0.00  0.00    -0.074 A 
ATOM      3  C2  UNL d   1       0.382  -5.829   4.397  0.00  0.00    -0.005 A 
ATOM      4  C3  UNL d   1       1.282  -5.778   5.462  0.00  0.00     0.006 A 
ATOM      5  C4  UNL d   1       2.656  -5.829   5.224  0.00  0.00    -0.005 A 
ATOM      6  C5  UNL d   1       3.142  -5.933   3.918  0.00  0.00    -0.074 A 
ATOM      7  C6  UNL d   1       4.616  -5.999   3.646  0.00  0.00     0.077 C 
ATOM      8  C7  UNL d   1       2.232  -5.991   2.853  0.00  0.00    -0.001 A 
ENDROOT
TORSDOF 0
ENDMDL
