MODEL 1
REMARK minimizedAffinity 8.43354893
REMARK minimizedRMSD -1
REMARK  0 active torsions:
REMARK  status: ('A' for Active; 'I' for Inactive)
ROOT
ATOM      1  C   UNL d   1       1.205  -1.453  -3.853  0.00  0.00     0.077 C 
ATOM      2  C1  UNL d   1      -0.168  -2.015  -4.075  0.00  0.00    -0.074 A 
ATOM      3  C2  UNL d   1      -0.431  -2.867  -5.152  0.00  0.00    -0.005 A 
ATOM      4  C3  UNL d   1      -1.710  -3.389  -5.340  0.00  0.00     0.006 A 
ATOM      5  C4  UNL d   1      -2.739  -3.065  -4.454  0.00  0.00    -0.005 A 
ATOM      6  C5  UNL d   1      -2.495  -2.214  -3.371  0.00  0.00    -0.074 A 
ATOM      7  C6  UNL d   1      -3.586  -1.863  -2.404  0.00  0.00     0.077 C 
ATOM      8  C7  UNL d   1      -1.204  -1.699  -3.185  0.00  0.00    -0.001 A 
ENDROOT
TORSDOF 0
ENDMDL
