MODEL 1
REMARK minimizedAffinity 1.68925548
REMARK minimizedRMSD -1
REMARK  0 active torsions:
REMARK  status: ('A' for Active; 'I' for Inactive)
ROOT
ATOM      1  C   UNL d   1       3.515  -0.357   1.921  0.00  0.00     0.077 C 
ATOM      2  C1  UNL d   1       2.116   0.061   1.577  0.00  0.00    -0.074 A 
ATOM      3  C2  UNL d   1       1.879   1.098   0.669  0.00  0.00    -0.005 A 
ATOM      4  C3  UNL d   1       0.573   1.469   0.351  0.00  0.00     0.006 A 
ATOM      5  C4  UNL d   1      -0.508   0.809   0.937  0.00  0.00    -0.005 A 
ATOM      6  C5  UNL d   1      -0.290  -0.230   1.847  0.00  0.00    -0.074 A 
ATOM      7  C6  UNL d   1      -1.440  -0.957   2.479  0.00  0.00     0.077 C 
ATOM      8  C7  UNL d   1       1.026  -0.602   2.156  0.00  0.00    -0.001 A 
ENDROOT
TORSDOF 0
ENDMDL
