MODEL 1
REMARK minimizedAffinity 10.4201469
REMARK minimizedRMSD -1
REMARK  0 active torsions:
REMARK  status: ('A' for Active; 'I' for Inactive)
ROOT
ATOM      1  C   UNL d   1       3.006  -0.388  -3.126  0.00  0.00     0.077 C 
ATOM      2  C1  UNL d   1       3.332   0.684  -4.124  0.00  0.00    -0.074 A 
ATOM      3  C2  UNL d   1       4.562   0.696  -4.790  0.00  0.00    -0.005 A 
ATOM      4  C3  UNL d   1       4.847   1.693  -5.722  0.00  0.00     0.006 A 
ATOM      5  C4  UNL d   1       3.908   2.687  -5.997  0.00  0.00    -0.005 A 
ATOM      6  C5  UNL d   1       2.672   2.691  -5.342  0.00  0.00    -0.074 A 
ATOM      7  C6  UNL d   1       1.647   3.747  -5.633  0.00  0.00     0.077 C 
ATOM      8  C7  UNL d   1       2.390   1.682  -4.412  0.00  0.00    -0.001 A 
ENDROOT
TORSDOF 0
ENDMDL
