MODEL 1
REMARK minimizedAffinity 5.1059556
REMARK minimizedRMSD -1
REMARK  0 active torsions:
REMARK  status: ('A' for Active; 'I' for Inactive)
ROOT
ATOM      1  C   UNL d   1       1.476  -0.452  -0.817  0.00  0.00     0.077 C 
ATOM      2  C1  UNL d   1       0.875   0.134   0.427  0.00  0.00    -0.074 A 
ATOM      3  C2  UNL d   1       1.302   1.373   0.916  0.00  0.00    -0.005 A 
ATOM      4  C3  UNL d   1       0.727   1.909   2.069  0.00  0.00     0.006 A 
ATOM      5  C4  UNL d   1      -0.278   1.214   2.742  0.00  0.00    -0.005 A 
ATOM      6  C5  UNL d   1      -0.718  -0.026   2.267  0.00  0.00    -0.074 A 
ATOM      7  C6  UNL d   1      -1.804  -0.782   2.973  0.00  0.00     0.077 C 
ATOM      8  C7  UNL d   1      -0.140  -0.555   1.104  0.00  0.00    -0.001 A 
ENDROOT
TORSDOF 0
ENDMDL
