MODEL 1
REMARK minimizedAffinity 6.27830839
REMARK minimizedRMSD -1
REMARK  0 active torsions:
REMARK  status: ('A' for Active; 'I' for Inactive)
ROOT
ATOM      1  C   UNL d   1       0.816  -2.275  -5.347  0.00  0.00     0.077 C 
ATOM      2  C1  UNL d   1       1.660  -1.458  -4.415  0.00  0.00    -0.074 A 
ATOM      3  C2  UNL d   1       2.739  -0.708  -4.893  0.00  0.00    -0.005 A 
ATOM      4  C3  UNL d   1       3.510   0.054  -4.015  0.00  0.00     0.006 A 
ATOM      5  C4  UNL d   1       3.209   0.075  -2.652  0.00  0.00    -0.005 A 
ATOM      6  C5  UNL d   1       2.133  -0.668  -2.156  0.00  0.00    -0.074 A 
ATOM      7  C6  UNL d   1       1.791  -0.650  -0.696  0.00  0.00     0.077 C 
ATOM      8  C7  UNL d   1       1.360  -1.426  -3.046  0.00  0.00    -0.001 A 
ENDROOT
TORSDOF 0
ENDMDL
