MODEL 1
REMARK minimizedAffinity 4.78487825
REMARK minimizedRMSD -1
REMARK  0 active torsions:
REMARK  status: ('A' for Active; 'I' for Inactive)
ROOT
ATOM      1  C   UNL d   1       4.189  -5.951   3.004  0.00  0.00     0.077 C 
ATOM      2  C1  UNL d   1       2.730  -5.974   3.352  0.00  0.00    -0.074 A 
ATOM      3  C2  UNL d   1       2.309  -5.976   4.686  0.00  0.00    -0.005 A 
ATOM      4  C3  UNL d   1       0.949  -5.989   4.994  0.00  0.00     0.006 A 
ATOM      5  C4  UNL d   1      -0.003  -5.999   3.974  0.00  0.00    -0.005 A 
ATOM      6  C5  UNL d   1       0.399  -5.996   2.634  0.00  0.00    -0.074 A 
ATOM      7  C6  UNL d   1      -0.611  -5.997   1.525  0.00  0.00     0.077 C 
ATOM      8  C7  UNL d   1       1.768  -5.977   2.332  0.00  0.00    -0.001 A 
ENDROOT
TORSDOF 0
ENDMDL
