MODEL 1
REMARK minimizedAffinity 2.67671871
REMARK minimizedRMSD -1
REMARK  0 active torsions:
REMARK  status: ('A' for Active; 'I' for Inactive)
ROOT
ATOM      1  C   UNL d   1       1.234  -5.998   5.954  0.00  0.00     0.077 C 
ATOM      2  C1  UNL d   1       1.224  -5.991   4.454  0.00  0.00    -0.074 A 
ATOM      3  C2  UNL d   1       2.419  -5.997   3.728  0.00  0.00    -0.005 A 
ATOM      4  C3  UNL d   1       2.394  -6.000   2.333  0.00  0.00     0.006 A 
ATOM      5  C4  UNL d   1       1.177  -5.997   1.652  0.00  0.00    -0.005 A 
ATOM      6  C5  UNL d   1      -0.029  -5.993   2.361  0.00  0.00    -0.074 A 
ATOM      7  C6  UNL d   1      -1.346  -6.000   1.645  0.00  0.00     0.077 C 
ATOM      8  C7  UNL d   1       0.005  -5.997   3.763  0.00  0.00    -0.001 A 
ENDROOT
TORSDOF 0
ENDMDL
