MODEL 1
REMARK minimizedAffinity 9.37032986
REMARK minimizedRMSD -1
REMARK  0 active torsions:
REMARK  status: ('A' for Active; 'I' for Inactive)
ROOT
ATOM      1  C   UNL d   1      -5.296  -1.367  -2.417  0.00  0.00     0.077 C 
ATOM      2  C1  UNL d   1      -3.873  -1.448  -2.884  0.00  0.00    -0.074 A 
ATOM      3  C2  UNL d   1      -2.983  -0.391  -2.667  0.00  0.00    -0.005 A 
ATOM      4  C3  UNL d   1      -1.660  -0.485  -3.099  0.00  0.00     0.006 A 
ATOM      5  C4  UNL d   1      -1.214  -1.635  -3.751  0.00  0.00    -0.005 A 
ATOM      6  C5  UNL d   1      -2.089  -2.702  -3.977  0.00  0.00    -0.074 A 
ATOM      7  C6  UNL d   1      -1.624  -3.949  -4.668  0.00  0.00     0.077 C 
ATOM      8  C7  UNL d   1      -3.415  -2.603  -3.533  0.00  0.00    -0.001 A 
ENDROOT
TORSDOF 0
ENDMDL
