MODEL 1
REMARK minimizedAffinity 11.0193081
REMARK minimizedRMSD -1
REMARK  0 active torsions:
REMARK  status: ('A' for Active; 'I' for Inactive)
ROOT
ATOM      1  C   UNL d   1       3.046   2.306   2.585  0.00  0.00     0.077 C 
ATOM      2  C1  UNL d   1       1.822   1.745   1.926  0.00  0.00    -0.074 A 
ATOM      3  C2  UNL d   1       1.440   2.160   0.646  0.00  0.00    -0.005 A 
ATOM      4  C3  UNL d   1       0.304   1.622   0.042  0.00  0.00     0.006 A 
ATOM      5  C4  UNL d   1      -0.460   0.663   0.709  0.00  0.00    -0.005 A 
ATOM      6  C5  UNL d   1      -0.093   0.235   1.989  0.00  0.00    -0.074 A 
ATOM      7  C6  UNL d   1      -0.897  -0.801   2.716  0.00  0.00     0.077 C 
ATOM      8  C7  UNL d   1       1.054   0.776   2.587  0.00  0.00    -0.001 A 
ENDROOT
TORSDOF 0
ENDMDL
