MODEL 1
REMARK minimizedAffinity 2.07225204
REMARK minimizedRMSD -1
REMARK  0 active torsions:
REMARK  status: ('A' for Active; 'I' for Inactive)
ROOT
ATOM      1  C   UNL d   1      -2.079  -4.702  -3.496  0.00  0.00     0.077 C 
ATOM      2  C1  UNL d   1      -1.707  -3.252  -3.582  0.00  0.00    -0.074 A 
ATOM      3  C2  UNL d   1      -2.677  -2.252  -3.455  0.00  0.00    -0.005 A 
ATOM      4  C3  UNL d   1      -2.315  -0.908  -3.527  0.00  0.00     0.006 A 
ATOM      5  C4  UNL d   1      -0.981  -0.549  -3.727  0.00  0.00    -0.005 A 
ATOM      6  C5  UNL d   1       0.003  -1.534  -3.856  0.00  0.00    -0.074 A 
ATOM      7  C6  UNL d   1       1.442  -1.166  -4.061  0.00  0.00     0.077 C 
ATOM      8  C7  UNL d   1      -0.368  -2.883  -3.775  0.00  0.00    -0.001 A 
ENDROOT
TORSDOF 0
ENDMDL
