MODEL 1
REMARK minimizedAffinity 0.898997486
REMARK minimizedRMSD -1
REMARK  0 active torsions:
REMARK  status: ('A' for Active; 'I' for Inactive)
ROOT
ATOM      1  C   UNL d   1       0.888  -6.000   5.607  0.00  0.00     0.077 C 
ATOM      2  C1  UNL d   1       0.247  -5.992   4.251  0.00  0.00    -0.074 A 
ATOM      3  C2  UNL d   1       1.025  -5.998   3.089  0.00  0.00    -0.005 A 
ATOM      4  C3  UNL d   1       0.415  -6.000   1.835  0.00  0.00     0.006 A 
ATOM      5  C4  UNL d   1      -0.976  -5.996   1.730  0.00  0.00    -0.005 A 
ATOM      6  C5  UNL d   1      -1.770  -5.991   2.881  0.00  0.00    -0.074 A 
ATOM      7  C6  UNL d   1      -3.267  -5.997   2.786  0.00  0.00     0.077 C 
ATOM      8  C7  UNL d   1      -1.150  -5.996   4.138  0.00  0.00    -0.001 A 
ENDROOT
TORSDOF 0
ENDMDL
