MODEL 1
REMARK minimizedAffinity 9.9675293
REMARK minimizedRMSD -1
REMARK  0 active torsions:
REMARK  status: ('A' for Active; 'I' for Inactive)
ROOT
ATOM      1  C   UNL d   1      -1.108  -2.731   1.118  0.00  0.00     0.077 C 
ATOM      2  C1  UNL d   1      -0.768  -1.295   1.386  0.00  0.00    -0.074 A 
ATOM      3  C2  UNL d   1      -1.107  -0.691   2.600  0.00  0.00    -0.005 A 
ATOM      4  C3  UNL d   1      -0.775   0.643   2.839  0.00  0.00     0.006 A 
ATOM      5  C4  UNL d   1      -0.103   1.384   1.867  0.00  0.00    -0.005 A 
ATOM      6  C5  UNL d   1       0.245   0.796   0.646  0.00  0.00    -0.074 A 
ATOM      7  C6  UNL d   1       0.977   1.576  -0.406  0.00  0.00     0.077 C 
ATOM      8  C7  UNL d   1      -0.085  -0.546   0.417  0.00  0.00    -0.001 A 
ENDROOT
TORSDOF 0
ENDMDL
