MODEL 1
REMARK minimizedAffinity 1.21578145
REMARK minimizedRMSD -1
REMARK  0 active torsions:
REMARK  status: ('A' for Active; 'I' for Inactive)
ROOT
ATOM      1  C   UNL d   1       0.268   0.024  -3.727  0.00  0.00     0.077 C 
ATOM      2  C1  UNL d   1      -0.674  -1.143  -3.753  0.00  0.00    -0.074 A 
ATOM      3  C2  UNL d   1      -0.297  -2.359  -4.333  0.00  0.00    -0.005 A 
ATOM      4  C3  UNL d   1      -1.181  -3.438  -4.341  0.00  0.00     0.006 A 
ATOM      5  C4  UNL d   1      -2.449  -3.312  -3.771  0.00  0.00    -0.005 A 
ATOM      6  C5  UNL d   1      -2.843  -2.104  -3.187  0.00  0.00    -0.074 A 
ATOM      7  C6  UNL d   1      -4.198  -1.955  -2.561  0.00  0.00     0.077 C 
ATOM      8  C7  UNL d   1      -1.947  -1.027  -3.176  0.00  0.00    -0.001 A 
ENDROOT
TORSDOF 0
ENDMDL
