MODEL 1
REMARK minimizedAffinity -3.60277081
REMARK minimizedRMSD -1
REMARK  0 active torsions:
REMARK  status: ('A' for Active; 'I' for Inactive)
ROOT
ATOM      1  C2' OXE d   1      -0.751  -0.247  -0.021  0.00  0.00     0.078 C 
ATOM      2  C1' OXE d   1       1.413   1.529   0.184  0.00  0.00     0.078 C 
ATOM      3  C1  OXE d   1       1.400   0.329   1.097  0.00  0.00    -0.078 A 
ATOM      4  C2  OXE d   1       0.314  -0.510   1.023  0.00  0.00    -0.078 A 
ATOM      5  C3  OXE d   1       0.277  -1.662   1.804  0.00  0.00     0.003 A 
ATOM      6  C4  OXE d   1       1.261  -1.892   2.773  0.00  0.00    -0.002 A 
ATOM      7  C5  OXE d   1       2.356  -1.029   2.893  0.00  0.00    -0.002 A 
ATOM      8  C6  OXE d   1       2.461   0.060   2.035  0.00  0.00     0.003 A 
ENDROOT
TORSDOF 0
ENDMDL
