MODEL 1
REMARK minimizedAffinity -2.51206374
REMARK minimizedRMSD -1
REMARK  0 active torsions:
REMARK  status: ('A' for Active; 'I' for Inactive)
ROOT
ATOM      1  C2' OXE d   1      -1.931  -0.088   0.749  0.00  0.00     0.078 C 
ATOM      2  C1' OXE d   1       0.587   0.410  -0.388  0.00  0.00     0.078 C 
ATOM      3  C1  OXE d   1      -0.591   0.276  -1.320  0.00  0.00    -0.078 A 
ATOM      4  C2  OXE d   1      -1.811  -0.014  -0.758  0.00  0.00    -0.078 A 
ATOM      5  C3  OXE d   1      -2.941  -0.094  -1.568  0.00  0.00     0.003 A 
ATOM      6  C4  OXE d   1      -2.820  -0.034  -2.961  0.00  0.00    -0.002 A 
ATOM      7  C5  OXE d   1      -1.580   0.222  -3.556  0.00  0.00    -0.002 A 
ATOM      8  C6  OXE d   1      -0.465   0.421  -2.749  0.00  0.00     0.003 A 
ENDROOT
TORSDOF 0
ENDMDL
