MODEL 1
REMARK minimizedAffinity -1.70583785
REMARK minimizedRMSD -1
REMARK  0 active torsions:
REMARK  status: ('A' for Active; 'I' for Inactive)
ROOT
ATOM      1  C2' OXE d   1      -1.657   0.154  -0.313  0.00  0.00     0.078 C 
ATOM      2  C1' OXE d   1      -0.271  -1.776   1.181  0.00  0.00     0.078 C 
ATOM      3  C1  OXE d   1       0.425  -0.467   0.906  0.00  0.00    -0.078 A 
ATOM      4  C2  OXE d   1      -0.242   0.454   0.134  0.00  0.00    -0.078 A 
ATOM      5  C3  OXE d   1       0.332   1.699  -0.104  0.00  0.00     0.003 A 
ATOM      6  C4  OXE d   1       1.645   1.964   0.305  0.00  0.00    -0.002 A 
ATOM      7  C5  OXE d   1       2.357   1.025   1.058  0.00  0.00    -0.002 A 
ATOM      8  C6  OXE d   1       1.747  -0.176   1.403  0.00  0.00     0.003 A 
ENDROOT
TORSDOF 0
ENDMDL
