MODEL 1
REMARK minimizedAffinity -4.32331133
REMARK minimizedRMSD -1
REMARK  0 active torsions:
REMARK  status: ('A' for Active; 'I' for Inactive)
ROOT
ATOM      1  C2' OXE d   1      -1.773  -0.022   0.130  0.00  0.00     0.078 C 
ATOM      2  C1' OXE d   1      -0.401  -2.033   1.528  0.00  0.00     0.078 C 
ATOM      3  C1  OXE d   1       0.364  -0.788   1.154  0.00  0.00    -0.078 A 
ATOM      4  C2  OXE d   1      -0.302   0.170   0.429  0.00  0.00    -0.078 A 
ATOM      5  C3  OXE d   1       0.341   1.361   0.105  0.00  0.00     0.003 A 
ATOM      6  C4  OXE d   1       1.705   1.527   0.377  0.00  0.00    -0.002 A 
ATOM      7  C5  OXE d   1       2.413   0.546   1.079  0.00  0.00    -0.002 A 
ATOM      8  C6  OXE d   1       1.748  -0.596   1.511  0.00  0.00     0.003 A 
ENDROOT
TORSDOF 0
ENDMDL
