MODEL 1
REMARK minimizedAffinity -3.08608603
REMARK minimizedRMSD -1
REMARK  0 active torsions:
REMARK  status: ('A' for Active; 'I' for Inactive)
ROOT
ATOM      1  C2' OXE d   1       1.947  -1.944   2.947  0.00  0.00     0.078 C 
ATOM      2  C1' OXE d   1      -0.378  -2.594   1.515  0.00  0.00     0.078 C 
ATOM      3  C1  OXE d   1       0.339  -1.319   1.150  0.00  0.00    -0.078 A 
ATOM      4  C2  OXE d   1       1.450  -0.985   1.887  0.00  0.00    -0.078 A 
ATOM      5  C3  OXE d   1       2.180   0.153   1.557  0.00  0.00     0.003 A 
ATOM      6  C4  OXE d   1       1.708   1.040   0.582  0.00  0.00    -0.002 A 
ATOM      7  C5  OXE d   1       0.557   0.739  -0.154  0.00  0.00    -0.002 A 
ATOM      8  C6  OXE d   1      -0.114  -0.455   0.088  0.00  0.00     0.003 A 
ENDROOT
TORSDOF 0
ENDMDL
