MODEL 1
REMARK minimizedAffinity -3.50591612
REMARK minimizedRMSD -1
REMARK  0 active torsions:
REMARK  status: ('A' for Active; 'I' for Inactive)
ROOT
ATOM      1  C2' OXE d   1      -2.073   0.632  -0.917  0.00  0.00     0.078 C 
ATOM      2  C1' OXE d   1      -1.165  -1.421   0.768  0.00  0.00     0.078 C 
ATOM      3  C1  OXE d   1      -0.255  -0.240   0.545  0.00  0.00    -0.078 A 
ATOM      4  C2  OXE d   1      -0.687   0.738  -0.318  0.00  0.00    -0.078 A 
ATOM      5  C3  OXE d   1       0.090   1.876  -0.517  0.00  0.00     0.003 A 
ATOM      6  C4  OXE d   1       1.375   1.961   0.034  0.00  0.00    -0.002 A 
ATOM      7  C5  OXE d   1       1.851   0.958   0.884  0.00  0.00    -0.002 A 
ATOM      8  C6  OXE d   1       1.034  -0.127   1.183  0.00  0.00     0.003 A 
ENDROOT
TORSDOF 0
ENDMDL
