MODEL 1
REMARK minimizedAffinity -5.23883438
REMARK minimizedRMSD -1
REMARK  0 active torsions:
REMARK  status: ('A' for Active; 'I' for Inactive)
ROOT
ATOM      1  C2' OXE d   1       0.420   1.740   0.049  0.00  0.00     0.078 C 
ATOM      2  C1' OXE d   1      -1.122  -0.595   0.270  0.00  0.00     0.078 C 
ATOM      3  C1  OXE d   1       0.260  -0.605   0.873  0.00  0.00    -0.078 A 
ATOM      4  C2  OXE d   1       1.025   0.526   0.720  0.00  0.00    -0.078 A 
ATOM      5  C3  OXE d   1       2.287   0.589   1.305  0.00  0.00     0.003 A 
ATOM      6  C4  OXE d   1       2.843  -0.541   1.915  0.00  0.00    -0.002 A 
ATOM      7  C5  OXE d   1       2.096  -1.717   2.047  0.00  0.00    -0.002 A 
ATOM      8  C6  OXE d   1       0.790  -1.751   1.571  0.00  0.00     0.003 A 
ENDROOT
TORSDOF 0
ENDMDL
