MODEL 1
REMARK minimizedAffinity -4.56488752
REMARK minimizedRMSD -1
REMARK  0 active torsions:
REMARK  status: ('A' for Active; 'I' for Inactive)
ROOT
ATOM      1  C2' OXE d   1      -0.863  -0.032  -0.384  0.00  0.00     0.078 C 
ATOM      2  C1' OXE d   1       1.227   1.841  -0.356  0.00  0.00     0.078 C 
ATOM      3  C1  OXE d   1       1.343   0.644   0.554  0.00  0.00    -0.078 A 
ATOM      4  C2  OXE d   1       0.294  -0.243   0.568  0.00  0.00    -0.078 A 
ATOM      5  C3  OXE d   1       0.374  -1.392   1.349  0.00  0.00     0.003 A 
ATOM      6  C4  OXE d   1       1.443  -1.575   2.234  0.00  0.00    -0.002 A 
ATOM      7  C5  OXE d   1       2.503  -0.663   2.265  0.00  0.00    -0.002 A 
ATOM      8  C6  OXE d   1       2.489   0.427   1.402  0.00  0.00     0.003 A 
ENDROOT
TORSDOF 0
ENDMDL
