MODEL 1
REMARK minimizedAffinity -5.8749609
REMARK minimizedRMSD -1
REMARK  0 active torsions:
REMARK  status: ('A' for Active; 'I' for Inactive)
ROOT
ATOM      1  C2' OXE d   1      -0.381   0.022  -0.348  0.00  0.00     0.078 C 
ATOM      2  C1' OXE d   1       1.535   2.072  -0.305  0.00  0.00     0.078 C 
ATOM      3  C1  OXE d   1       1.878   0.774   0.383  0.00  0.00    -0.078 A 
ATOM      4  C2  OXE d   1       0.916  -0.207   0.397  0.00  0.00    -0.078 A 
ATOM      5  C3  OXE d   1       1.201  -1.443   0.970  0.00  0.00     0.003 A 
ATOM      6  C4  OXE d   1       2.399  -1.643   1.666  0.00  0.00    -0.002 A 
ATOM      7  C5  OXE d   1       3.377  -0.642   1.698  0.00  0.00    -0.002 A 
ATOM      8  C6  OXE d   1       3.150   0.554   1.026  0.00  0.00     0.003 A 
ENDROOT
TORSDOF 0
ENDMDL
