MODEL 1
REMARK minimizedAffinity -2.38192511
REMARK minimizedRMSD -1
REMARK  0 active torsions:
REMARK  status: ('A' for Active; 'I' for Inactive)
ROOT
ATOM      1  C2' OXE d   1       1.819   1.915  -0.614  0.00  0.00     0.078 C 
ATOM      2  C1' OXE d   1       2.680   0.227   1.457  0.00  0.00     0.078 C 
ATOM      3  C1  OXE d   1       1.322  -0.035   0.854  0.00  0.00    -0.078 A 
ATOM      4  C2  OXE d   1       0.890   0.824  -0.127  0.00  0.00    -0.078 A 
ATOM      5  C3  OXE d   1      -0.331   0.595  -0.755  0.00  0.00     0.003 A 
ATOM      6  C4  OXE d   1      -1.189  -0.410  -0.292  0.00  0.00    -0.002 A 
ATOM      7  C5  OXE d   1      -0.784  -1.272   0.732  0.00  0.00    -0.002 A 
ATOM      8  C6  OXE d   1       0.483  -1.125   1.286  0.00  0.00     0.003 A 
ENDROOT
TORSDOF 0
ENDMDL
