MODEL 1
REMARK minimizedAffinity 12.9161329
REMARK minimizedRMSD -1
REMARK  2 active torsions:
REMARK  status: ('A' for Active; 'I' for Inactive)
REMARK    1  A    between atoms: C1_2  and  C2_3 
REMARK    2  A    between atoms: C2_3  and  C3_4 
ROOT
ATOM      1  C3  UNL d   1       2.516   0.820   1.927  0.00  0.00    -0.075 A 
ATOM      2  C4  UNL d   1       2.673  -0.536   1.604  0.00  0.00     0.002 A 
ATOM      3  C5  UNL d   1       2.383  -1.526   2.543  0.00  0.00     0.002 A 
ATOM      4  C6  UNL d   1       1.942  -1.174   3.817  0.00  0.00    -0.004 A 
ATOM      5  C7  UNL d   1       1.798   0.170   4.154  0.00  0.00     0.002 A 
ATOM      6  C8  UNL d   1       2.084   1.163   3.215  0.00  0.00     0.002 A 
ENDROOT
BRANCH   1   7
ATOM      7  C2  UNL d   1       2.801   1.895   0.906  0.00  0.00     0.056 C 
BRANCH   7   8
ATOM      8  C1  UNL d   1       2.133   3.240   1.213  0.00  0.00     0.007 C 
ATOM      9  C   UNL d   1       1.976   4.126  -0.015  0.00  0.00     0.009 C 
ENDBRANCH   7   8
ENDBRANCH   1   7
TORSDOF 2
ENDMDL
