MODEL 1
REMARK minimizedAffinity -0.11594329
REMARK minimizedRMSD -1
REMARK  2 active torsions:
REMARK  status: ('A' for Active; 'I' for Inactive)
REMARK    1  A    between atoms: C1_2  and  C2_3 
REMARK    2  A    between atoms: C2_3  and  C3_4 
ROOT
ATOM      1  C3  UNL d   1       2.365   1.688   1.494  0.00  0.00    -0.075 A 
ATOM      2  C4  UNL d   1       1.770   0.970   2.541  0.00  0.00     0.002 A 
ATOM      3  C5  UNL d   1       2.201  -0.320   2.850  0.00  0.00     0.002 A 
ATOM      4  C6  UNL d   1       3.224  -0.912   2.112  0.00  0.00    -0.004 A 
ATOM      5  C7  UNL d   1       3.812  -0.214   1.059  0.00  0.00     0.002 A 
ATOM      6  C8  UNL d   1       3.385   1.079   0.750  0.00  0.00     0.002 A 
ENDROOT
BRANCH   1   7
ATOM      7  C2  UNL d   1       1.923   3.096   1.173  0.00  0.00     0.056 C 
BRANCH   7   8
ATOM      8  C1  UNL d   1       1.942   3.430  -0.322  0.00  0.00     0.007 C 
ATOM      9  C   UNL d   1       1.626   4.891  -0.615  0.00  0.00     0.009 C 
ENDBRANCH   7   8
ENDBRANCH   1   7
TORSDOF 2
ENDMDL
