MODEL 1
REMARK minimizedAffinity 7.41283941
REMARK minimizedRMSD -1
REMARK  2 active torsions:
REMARK  status: ('A' for Active; 'I' for Inactive)
REMARK    1  A    between atoms: C1_2  and  C2_3 
REMARK    2  A    between atoms: C2_3  and  C3_4 
ROOT
ATOM      1  C3  UNL d   1       1.935   0.636   2.326  0.00  0.00    -0.075 A 
ATOM      2  C4  UNL d   1       1.759   0.184   3.642  0.00  0.00     0.002 A 
ATOM      3  C5  UNL d   1       2.083  -1.127   3.990  0.00  0.00     0.002 A 
ATOM      4  C6  UNL d   1       2.576  -2.005   3.027  0.00  0.00    -0.004 A 
ATOM      5  C7  UNL d   1       2.740  -1.572   1.713  0.00  0.00     0.002 A 
ATOM      6  C8  UNL d   1       2.421  -0.259   1.363  0.00  0.00     0.002 A 
ENDROOT
BRANCH   1   7
ATOM      7  C2  UNL d   1       1.615   2.063   1.950  0.00  0.00     0.056 C 
BRANCH   7   8
ATOM      8  C1  UNL d   1       2.720   2.760   1.149  0.00  0.00     0.007 C 
ATOM      9  C   UNL d   1       2.200   3.879   0.256  0.00  0.00     0.009 C 
ENDBRANCH   7   8
ENDBRANCH   1   7
TORSDOF 2
ENDMDL
