MODEL 1
REMARK minimizedAffinity 12.6026335
REMARK minimizedRMSD -1
REMARK  2 active torsions:
REMARK  status: ('A' for Active; 'I' for Inactive)
REMARK    1  A    between atoms: C1_2  and  C2_3 
REMARK    2  A    between atoms: C2_3  and  C3_4 
ROOT
ATOM      1  C3  UNL d   1       2.232   1.331   1.767  0.00  0.00    -0.075 A 
ATOM      2  C4  UNL d   1       3.168   0.807   0.864  0.00  0.00     0.002 A 
ATOM      3  C5  UNL d   1       3.565  -0.528   0.950  0.00  0.00     0.002 A 
ATOM      4  C6  UNL d   1       3.040  -1.352   1.943  0.00  0.00    -0.004 A 
ATOM      5  C7  UNL d   1       2.121  -0.838   2.856  0.00  0.00     0.002 A 
ATOM      6  C8  UNL d   1       1.719   0.497   2.770  0.00  0.00     0.002 A 
ENDROOT
BRANCH   1   7
ATOM      7  C2  UNL d   1       1.776   2.766   1.662  0.00  0.00     0.056 C 
BRANCH   7   8
ATOM      8  C1  UNL d   1       2.070   3.416   0.305  0.00  0.00     0.007 C 
ATOM      9  C   UNL d   1       1.132   4.570  -0.023  0.00  0.00     0.009 C 
ENDBRANCH   7   8
ENDBRANCH   1   7
TORSDOF 2
ENDMDL
