MODEL 1
REMARK minimizedAffinity 3.99613404
REMARK minimizedRMSD -1
REMARK  2 active torsions:
REMARK  status: ('A' for Active; 'I' for Inactive)
REMARK    1  A    between atoms: C1_2  and  C2_3 
REMARK    2  A    between atoms: C2_3  and  C3_4 
ROOT
ATOM      1  C3  UNL d   1       5.539  -1.823  -4.771  0.00  0.00    -0.075 A 
ATOM      2  C4  UNL d   1       4.665  -1.273  -3.822  0.00  0.00     0.002 A 
ATOM      3  C5  UNL d   1       4.229   0.046  -3.942  0.00  0.00     0.002 A 
ATOM      4  C6  UNL d   1       4.668   0.835  -5.003  0.00  0.00    -0.004 A 
ATOM      5  C7  UNL d   1       5.549   0.304  -5.943  0.00  0.00     0.002 A 
ATOM      6  C8  UNL d   1       5.984  -1.018  -5.828  0.00  0.00     0.002 A 
ENDROOT
BRANCH   1   7
ATOM      7  C2  UNL d   1       5.992  -3.260  -4.663  0.00  0.00     0.056 C 
BRANCH   7   8
ATOM      8  C1  UNL d   1       5.972  -4.022  -5.992  0.00  0.00     0.007 C 
ATOM      9  C   UNL d   1       6.000  -5.534  -5.818  0.00  0.00     0.009 C 
ENDBRANCH   7   8
ENDBRANCH   1   7
TORSDOF 2
ENDMDL
