MODEL 1
REMARK minimizedAffinity 7.64625978
REMARK minimizedRMSD -1
REMARK  2 active torsions:
REMARK  status: ('A' for Active; 'I' for Inactive)
REMARK    1  A    between atoms: C1_2  and  C2_3 
REMARK    2  A    between atoms: C2_3  and  C3_4 
ROOT
ATOM      1  C3  UNL d   1       1.938  -2.866   4.503  0.00  0.00    -0.075 A 
ATOM      2  C4  UNL d   1       2.927  -3.392   3.660  0.00  0.00     0.002 A 
ATOM      3  C5  UNL d   1       3.325  -2.700   2.516  0.00  0.00     0.002 A 
ATOM      4  C6  UNL d   1       2.733  -1.480   2.196  0.00  0.00    -0.004 A 
ATOM      5  C7  UNL d   1       1.737  -0.956   3.018  0.00  0.00     0.002 A 
ATOM      6  C8  UNL d   1       1.341  -1.645   4.165  0.00  0.00     0.002 A 
ENDROOT
BRANCH   1   7
ATOM      7  C2  UNL d   1       1.525  -3.597   5.759  0.00  0.00     0.056 C 
BRANCH   7   8
ATOM      8  C1  UNL d   1       0.191  -4.342   5.636  0.00  0.00     0.007 C 
ATOM      9  C   UNL d   1       0.293  -5.818   5.993  0.00  0.00     0.009 C 
ENDBRANCH   7   8
ENDBRANCH   1   7
TORSDOF 2
ENDMDL
