MODEL 1
REMARK minimizedAffinity 14.7826071
REMARK minimizedRMSD -1
REMARK  2 active torsions:
REMARK  status: ('A' for Active; 'I' for Inactive)
REMARK    1  A    between atoms: C1_2  and  C2_3 
REMARK    2  A    between atoms: C2_3  and  C3_4 
ROOT
ATOM      1  C3  UNL d   1       2.588  -2.197   3.449  0.00  0.00    -0.075 A 
ATOM      2  C4  UNL d   1       2.588  -2.217   2.047  0.00  0.00     0.002 A 
ATOM      3  C5  UNL d   1       2.283  -1.064   1.322  0.00  0.00     0.002 A 
ATOM      4  C6  UNL d   1       1.965   0.117   1.989  0.00  0.00    -0.004 A 
ATOM      5  C7  UNL d   1       1.946   0.144   3.381  0.00  0.00     0.002 A 
ATOM      6  C8  UNL d   1       2.255  -1.007   4.109  0.00  0.00     0.002 A 
ENDROOT
BRANCH   1   7
ATOM      7  C2  UNL d   1       2.946  -3.434   4.239  0.00  0.00     0.056 C 
BRANCH   7   8
ATOM      8  C1  UNL d   1       4.440  -3.560   4.557  0.00  0.00     0.007 C 
ATOM      9  C   UNL d   1       4.779  -3.203   5.997  0.00  0.00     0.009 C 
ENDBRANCH   7   8
ENDBRANCH   1   7
TORSDOF 2
ENDMDL
