MODEL 1
REMARK minimizedAffinity 12.8982344
REMARK minimizedRMSD -1
REMARK  2 active torsions:
REMARK  status: ('A' for Active; 'I' for Inactive)
REMARK    1  A    between atoms: C1_2  and  C2_3 
REMARK    2  A    between atoms: C2_3  and  C3_4 
ROOT
ATOM      1  C3  UNL d   1       2.197  -1.909   4.170  0.00  0.00    -0.075 A 
ATOM      2  C4  UNL d   1       1.836  -0.570   3.956  0.00  0.00     0.002 A 
ATOM      3  C5  UNL d   1       2.220   0.089   2.787  0.00  0.00     0.002 A 
ATOM      4  C6  UNL d   1       2.976  -0.577   1.825  0.00  0.00    -0.004 A 
ATOM      5  C7  UNL d   1       3.355  -1.901   2.035  0.00  0.00     0.002 A 
ATOM      6  C8  UNL d   1       2.969  -2.564   3.201  0.00  0.00     0.002 A 
ENDROOT
BRANCH   1   7
ATOM      7  C2  UNL d   1       1.760  -2.636   5.419  0.00  0.00     0.056 C 
BRANCH   7   8
ATOM      8  C1  UNL d   1       0.457  -3.425   5.257  0.00  0.00     0.007 C 
ATOM      9  C   UNL d   1       0.464  -4.755   5.999  0.00  0.00     0.009 C 
ENDBRANCH   7   8
ENDBRANCH   1   7
TORSDOF 2
ENDMDL
