MODEL 1
REMARK minimizedAffinity 11.1112747
REMARK minimizedRMSD -1
REMARK  2 active torsions:
REMARK  status: ('A' for Active; 'I' for Inactive)
REMARK    1  A    between atoms: C1_2  and  C2_3 
REMARK    2  A    between atoms: C2_3  and  C3_4 
ROOT
ATOM      1  C3  UNL d   1       0.113   3.814   1.377  0.00  0.00    -0.075 A 
ATOM      2  C4  UNL d   1       1.413   3.579   1.847  0.00  0.00     0.002 A 
ATOM      3  C5  UNL d   1       2.520   3.910   1.065  0.00  0.00     0.002 A 
ATOM      4  C6  UNL d   1       2.342   4.471  -0.198  0.00  0.00    -0.004 A 
ATOM      5  C7  UNL d   1       1.054   4.695  -0.682  0.00  0.00     0.002 A 
ATOM      6  C8  UNL d   1      -0.055   4.368   0.100  0.00  0.00     0.002 A 
ENDROOT
BRANCH   1   7
ATOM      7  C2  UNL d   1      -1.089   3.485   2.230  0.00  0.00     0.056 C 
BRANCH   7   8
ATOM      8  C1  UNL d   1      -2.281   2.933   1.441  0.00  0.00     0.007 C 
ATOM      9  C   UNL d   1      -3.591   2.987   2.216  0.00  0.00     0.009 C 
ENDBRANCH   7   8
ENDBRANCH   1   7
TORSDOF 2
ENDMDL
