MODEL 1
REMARK minimizedAffinity 6.7605772
REMARK minimizedRMSD -1
REMARK  2 active torsions:
REMARK  status: ('A' for Active; 'I' for Inactive)
REMARK    1  A    between atoms: C1_2  and  C2_3 
REMARK    2  A    between atoms: C2_3  and  C3_4 
ROOT
ATOM      1  C3  UNL d   1       2.560   0.941   2.013  0.00  0.00    -0.075 A 
ATOM      2  C4  UNL d   1       2.611   1.342   3.355  0.00  0.00     0.002 A 
ATOM      3  C5  UNL d   1       2.477   0.405   4.380  0.00  0.00     0.002 A 
ATOM      4  C6  UNL d   1       2.280  -0.940   4.077  0.00  0.00    -0.004 A 
ATOM      5  C7  UNL d   1       2.212  -1.348   2.747  0.00  0.00     0.002 A 
ATOM      6  C8  UNL d   1       2.350  -0.413   1.719  0.00  0.00     0.002 A 
ENDROOT
BRANCH   1   7
ATOM      7  C2  UNL d   1       2.734   1.945   0.899  0.00  0.00     0.056 C 
BRANCH   7   8
ATOM      8  C1  UNL d   1       2.181   3.337   1.222  0.00  0.00     0.007 C 
ATOM      9  C   UNL d   1       2.032   4.224  -0.007  0.00  0.00     0.009 C 
ENDBRANCH   7   8
ENDBRANCH   1   7
TORSDOF 2
ENDMDL
