MODEL 1
REMARK minimizedAffinity 8.56930065
REMARK minimizedRMSD -1
REMARK  2 active torsions:
REMARK  status: ('A' for Active; 'I' for Inactive)
REMARK    1  A    between atoms: C1_2  and  C2_3 
REMARK    2  A    between atoms: C2_3  and  C3_4 
ROOT
ATOM      1  C3  UNL d   1       2.383   0.008   4.636  0.00  0.00    -0.075 A 
ATOM      2  C4  UNL d   1       2.832  -1.245   5.078  0.00  0.00     0.002 A 
ATOM      3  C5  UNL d   1       3.095  -2.266   4.164  0.00  0.00     0.002 A 
ATOM      4  C6  UNL d   1       2.903  -2.052   2.801  0.00  0.00    -0.004 A 
ATOM      5  C7  UNL d   1       2.441  -0.816   2.352  0.00  0.00     0.002 A 
ATOM      6  C8  UNL d   1       2.182   0.209   3.264  0.00  0.00     0.002 A 
ENDROOT
BRANCH   1   7
ATOM      7  C2  UNL d   1       2.126   1.127   5.617  0.00  0.00     0.056 C 
BRANCH   7   8
ATOM      8  C1  UNL d   1       3.117   2.291   5.510  0.00  0.00     0.007 C 
ATOM      9  C   UNL d   1       2.611   3.432   4.638  0.00  0.00     0.009 C 
ENDBRANCH   7   8
ENDBRANCH   1   7
TORSDOF 2
ENDMDL
