MODEL 1
REMARK minimizedAffinity 6.87017155
REMARK minimizedRMSD -1
REMARK  0 active torsions:
REMARK  status: ('A' for Active; 'I' for Inactive)
ROOT
ATOM      1  N1  IND d   1       1.030  -0.192   1.698  0.00  0.00    -0.196 N 
ATOM      2  C2  IND d   1       2.281   0.271   1.999  0.00  0.00     0.054 A 
ATOM      3  C3  IND d   1       2.513   1.443   1.367  0.00  0.00    -0.031 A 
ATOM      4  C4  IND d   1       0.945   2.833  -0.129  0.00  0.00     0.051 A 
ATOM      5  C5  IND d   1      -0.286   2.802  -0.722  0.00  0.00    -0.031 A 
ATOM      6  C6  IND d   1      -1.160   1.751  -0.533  0.00  0.00     0.015 A 
ATOM      7  C7  IND d   1      -0.838   0.692   0.269  0.00  0.00    -0.016 A 
ATOM      8  C8  IND d   1       0.414   0.718   0.868  0.00  0.00    -0.047 A 
ATOM      9  C9  IND d   1       1.321   1.761   0.646  0.00  0.00    -0.096 A 
ATOM     10  HN1 IND d   1       0.687  -0.928   1.980  0.00  0.00     0.298 HD
ENDROOT
TORSDOF 0
ENDMDL
