MODEL 1
REMARK minimizedAffinity 3.15539455
REMARK minimizedRMSD -1
REMARK  0 active torsions:
REMARK  status: ('A' for Active; 'I' for Inactive)
ROOT
ATOM      1  N1  IND d   1      -1.140  -0.039  -0.351  0.00  0.00    -0.196 N 
ATOM      2  C2  IND d   1      -1.133   1.198  -0.933  0.00  0.00     0.054 A 
ATOM      3  C3  IND d   1       0.035   1.831  -0.681  0.00  0.00    -0.031 A 
ATOM      4  C4  IND d   1       2.114   0.984   0.578  0.00  0.00     0.051 A 
ATOM      5  C5  IND d   1       2.570  -0.070   1.319  0.00  0.00    -0.031 A 
ATOM      6  C6  IND d   1       1.798  -1.191   1.543  0.00  0.00     0.015 A 
ATOM      7  C7  IND d   1       0.540  -1.306   1.023  0.00  0.00    -0.016 A 
ATOM      8  C8  IND d   1       0.071  -0.234   0.277  0.00  0.00    -0.047 A 
ATOM      9  C9  IND d   1       0.834   0.924   0.081  0.00  0.00    -0.096 A 
ATOM     10  HN1 IND d   1      -1.790  -0.600  -0.373  0.00  0.00     0.298 HD
ENDROOT
TORSDOF 0
ENDMDL
