MODEL 1
REMARK minimizedAffinity -5.56862926
REMARK minimizedRMSD -1
REMARK  0 active torsions:
REMARK  status: ('A' for Active; 'I' for Inactive)
ROOT
ATOM      1  N1  IND d   1       0.721  -2.226   1.745  0.00  0.00    -0.196 N 
ATOM      2  C2  IND d   1       1.951  -2.480   2.284  0.00  0.00     0.054 A 
ATOM      3  C3  IND d   1       2.844  -1.549   1.878  0.00  0.00    -0.031 A 
ATOM      4  C4  IND d   1       2.480   0.535   0.411  0.00  0.00     0.051 A 
ATOM      5  C5  IND d   1       1.534   1.169  -0.345  0.00  0.00    -0.031 A 
ATOM      6  C6  IND d   1       0.242   0.695  -0.443  0.00  0.00     0.015 A 
ATOM      7  C7  IND d   1      -0.157  -0.429   0.224  0.00  0.00    -0.016 A 
ATOM      8  C8  IND d   1       0.803  -1.079   0.987  0.00  0.00    -0.047 A 
ATOM      9  C9  IND d   1       2.127  -0.626   1.056  0.00  0.00    -0.096 A 
ATOM     10  HN1 IND d   1       0.015  -2.703   1.859  0.00  0.00     0.298 HD
ENDROOT
TORSDOF 0
ENDMDL
