MODEL 1
REMARK minimizedAffinity -6.12679529
REMARK minimizedRMSD -1
REMARK  0 active torsions:
REMARK  status: ('A' for Active; 'I' for Inactive)
ROOT
ATOM      1  N1  IND d   1      -0.611  -1.150   1.472  0.00  0.00    -0.196 N 
ATOM      2  C2  IND d   1      -1.011  -0.069   0.737  0.00  0.00     0.054 A 
ATOM      3  C3  IND d   1       0.062   0.573   0.223  0.00  0.00    -0.031 A 
ATOM      4  C4  IND d   1       2.559  -0.034   0.374  0.00  0.00     0.051 A 
ATOM      5  C5  IND d   1       3.419  -0.914   0.968  0.00  0.00    -0.031 A 
ATOM      6  C6  IND d   1       2.971  -1.941   1.773  0.00  0.00     0.015 A 
ATOM      7  C7  IND d   1       1.639  -2.133   2.008  0.00  0.00    -0.016 A 
ATOM      8  C8  IND d   1       0.763  -1.236   1.413  0.00  0.00    -0.047 A 
ATOM      9  C9  IND d   1       1.214  -0.167   0.628  0.00  0.00    -0.096 A 
ATOM     10  HN1 IND d   1      -1.130  -1.686   1.899  0.00  0.00     0.298 HD
ENDROOT
TORSDOF 0
ENDMDL
