MODEL 1
REMARK minimizedAffinity -2.32376575
REMARK minimizedRMSD -1
REMARK  0 active torsions:
REMARK  status: ('A' for Active; 'I' for Inactive)
ROOT
ATOM      1  N1  IND d   1       0.087  -0.712  -0.769  0.00  0.00    -0.196 N 
ATOM      2  C2  IND d   1       0.234   0.208   0.231  0.00  0.00     0.054 A 
ATOM      3  C3  IND d   1      -0.727   1.156   0.143  0.00  0.00    -0.031 A 
ATOM      4  C4  IND d   1      -2.702   1.335  -1.499  0.00  0.00     0.051 A 
ATOM      5  C5  IND d   1      -3.233   0.748  -2.613  0.00  0.00    -0.031 A 
ATOM      6  C6  IND d   1      -2.675  -0.380  -3.179  0.00  0.00     0.015 A 
ATOM      7  C7  IND d   1      -1.567  -0.972  -2.643  0.00  0.00    -0.016 A 
ATOM      8  C8  IND d   1      -1.021  -0.375  -1.516  0.00  0.00    -0.047 A 
ATOM      9  C9  IND d   1      -1.557   0.794  -0.962  0.00  0.00    -0.096 A 
ATOM     10  HN1 IND d   1       0.600  -1.388  -0.908  0.00  0.00     0.298 HD
ENDROOT
TORSDOF 0
ENDMDL
