MODEL 1
REMARK minimizedAffinity 2.78326249
REMARK minimizedRMSD -1
REMARK  0 active torsions:
REMARK  status: ('A' for Active; 'I' for Inactive)
ROOT
ATOM      1  N1  IND d   1      -3.336   3.044  -3.679  0.00  0.00    -0.196 N 
ATOM      2  C2  IND d   1      -3.681   1.756  -3.380  0.00  0.00     0.054 A 
ATOM      3  C3  IND d   1      -4.685   1.736  -2.474  0.00  0.00    -0.031 A 
ATOM      4  C4  IND d   1      -5.978   3.699  -1.423  0.00  0.00     0.051 A 
ATOM      5  C5  IND d   1      -5.999   5.064  -1.360  0.00  0.00    -0.031 A 
ATOM      6  C6  IND d   1      -5.118   5.841  -2.083  0.00  0.00     0.015 A 
ATOM      7  C7  IND d   1      -4.186   5.280  -2.909  0.00  0.00    -0.016 A 
ATOM      8  C8  IND d   1      -4.156   3.894  -2.970  0.00  0.00    -0.047 A 
ATOM      9  C9  IND d   1      -5.020   3.099  -2.206  0.00  0.00    -0.096 A 
ATOM     10  HN1 IND d   1      -2.711   3.284  -4.219  0.00  0.00     0.298 HD
ENDROOT
TORSDOF 0
ENDMDL
