MODEL 1
REMARK minimizedAffinity 5.8094039
REMARK minimizedRMSD -1
REMARK  1 active torsions:
REMARK  status: ('A' for Active; 'I' for Inactive)
REMARK    1  A    between atoms: N_2  and  C1_3 
ROOT
ATOM      1  C1  UNL d   1      -5.895   1.795  -4.463  0.00  0.00     0.143 A 
ATOM      2  C2  UNL d   1      -5.855   3.060  -5.059  0.00  0.00    -0.057 A 
ATOM      3  C3  UNL d   1      -5.858   4.228  -4.286  0.00  0.00     0.033 A 
ATOM      4  C4  UNL d   1      -5.929   4.150  -2.899  0.00  0.00    -0.042 A 
ATOM      5  C5  UNL d   1      -5.994   2.904  -2.286  0.00  0.00     0.033 A 
ATOM      6  C6  UNL d   1      -5.985   1.742  -3.063  0.00  0.00    -0.057 A 
ENDROOT
BRANCH   1   7
ATOM      7  N   UNL d   1      -5.994   0.600  -5.179  0.00  0.00    -0.732 N 
ATOM      8  C   UNL d   1      -4.826   0.012  -5.797  0.00  0.00     0.284 C 
ATOM      9  H3  UNL d   1      -6.610  -0.073  -4.729  0.00  0.00     0.395 HD
ENDBRANCH   1   7
TORSDOF 1
ENDMDL
