MODEL 1
REMARK minimizedAffinity 1.60627568
REMARK minimizedRMSD -1
REMARK  1 active torsions:
REMARK  status: ('A' for Active; 'I' for Inactive)
REMARK    1  A    between atoms: N_2  and  C1_3 
ROOT
ATOM      1  C1  UNL d   1      -6.000   2.161  -1.274  0.00  0.00     0.143 A 
ATOM      2  C2  UNL d   1      -5.905   3.462  -1.780  0.00  0.00    -0.057 A 
ATOM      3  C3  UNL d   1      -5.860   3.704  -3.158  0.00  0.00     0.033 A 
ATOM      4  C4  UNL d   1      -5.880   2.642  -4.057  0.00  0.00    -0.042 A 
ATOM      5  C5  UNL d   1      -5.949   1.340  -3.576  0.00  0.00     0.033 A 
ATOM      6  C6  UNL d   1      -6.000   1.105  -2.199  0.00  0.00    -0.057 A 
ENDROOT
BRANCH   1   7
ATOM      7  N   UNL d   1      -5.949   1.851   0.087  0.00  0.00    -0.732 N 
ATOM      8  C   UNL d   1      -4.693   1.502   0.717  0.00  0.00     0.284 C 
ATOM      9  H3  UNL d   1      -6.539   2.461   0.647  0.00  0.00     0.395 HD
ENDBRANCH   1   7
TORSDOF 1
ENDMDL
