MODEL 1
REMARK minimizedAffinity 0.0477019958
REMARK minimizedRMSD -1
REMARK  1 active torsions:
REMARK  status: ('A' for Active; 'I' for Inactive)
REMARK    1  A    between atoms: N_2  and  C1_3 
ROOT
ATOM      1  C1  UNL d   1      -5.924   2.322  -1.955  0.00  0.00     0.143 A 
ATOM      2  C2  UNL d   1      -5.977   1.462  -3.058  0.00  0.00    -0.057 A 
ATOM      3  C3  UNL d   1      -6.000   1.959  -4.366  0.00  0.00     0.033 A 
ATOM      4  C4  UNL d   1      -5.999   3.331  -4.595  0.00  0.00    -0.042 A 
ATOM      5  C5  UNL d   1      -5.972   4.205  -3.514  0.00  0.00     0.033 A 
ATOM      6  C6  UNL d   1      -5.943   3.702  -2.210  0.00  0.00    -0.057 A 
ENDROOT
BRANCH   1   7
ATOM      7  N   UNL d   1      -5.999   1.891  -0.629  0.00  0.00    -0.732 N 
ATOM      8  C   UNL d   1      -4.826   1.906   0.219  0.00  0.00     0.284 C 
ATOM      9  H3  UNL d   1      -6.850   2.204  -0.166  0.00  0.00     0.395 HD
ENDBRANCH   1   7
TORSDOF 1
ENDMDL
