MODEL 1
REMARK minimizedAffinity 5.63139248
REMARK minimizedRMSD -1
REMARK  1 active torsions:
REMARK  status: ('A' for Active; 'I' for Inactive)
REMARK    1  A    between atoms: N_2  and  C1_3 
ROOT
ATOM      1  C1  UNL d   1      -5.622   1.464  -4.294  0.00  0.00     0.143 A 
ATOM      2  C2  UNL d   1      -5.908   1.435  -2.925  0.00  0.00    -0.057 A 
ATOM      3  C3  UNL d   1      -5.683   2.553  -2.113  0.00  0.00     0.033 A 
ATOM      4  C4  UNL d   1      -5.140   3.714  -2.652  0.00  0.00    -0.042 A 
ATOM      5  C5  UNL d   1      -4.825   3.757  -4.006  0.00  0.00     0.033 A 
ATOM      6  C6  UNL d   1      -5.058   2.640  -4.813  0.00  0.00    -0.057 A 
ENDROOT
BRANCH   1   7
ATOM      7  N   UNL d   1      -5.730   0.353  -5.135  0.00  0.00    -0.732 N 
ATOM      8  C   UNL d   1      -4.570  -0.161  -5.830  0.00  0.00     0.284 C 
ATOM      9  H3  UNL d   1      -6.338  -0.367  -4.751  0.00  0.00     0.395 HD
ENDBRANCH   1   7
TORSDOF 1
ENDMDL
