MODEL 1
REMARK minimizedAffinity 3.60464072
REMARK minimizedRMSD -1
REMARK  1 active torsions:
REMARK  status: ('A' for Active; 'I' for Inactive)
REMARK    1  A    between atoms: N_2  and  C1_3 
ROOT
ATOM      1  C1  UNL d   1      -4.514   1.150   2.028  0.00  0.00     0.143 A 
ATOM      2  C2  UNL d   1      -4.020  -0.154   1.911  0.00  0.00    -0.057 A 
ATOM      3  C3  UNL d   1      -4.523  -1.194   2.702  0.00  0.00     0.033 A 
ATOM      4  C4  UNL d   1      -5.512  -0.941   3.647  0.00  0.00    -0.042 A 
ATOM      5  C5  UNL d   1      -6.000   0.352   3.798  0.00  0.00     0.033 A 
ATOM      6  C6  UNL d   1      -5.498   1.385   3.000  0.00  0.00    -0.057 A 
ENDROOT
BRANCH   1   7
ATOM      7  N   UNL d   1      -3.986   2.246   1.340  0.00  0.00    -0.732 N 
ATOM      8  C   UNL d   1      -2.599   2.622   1.506  0.00  0.00     0.284 C 
ATOM      9  H3  UNL d   1      -4.319   2.298   0.380  0.00  0.00     0.395 HD
ENDBRANCH   1   7
TORSDOF 1
ENDMDL
