MODEL 1
REMARK minimizedAffinity -1.7088176
REMARK minimizedRMSD -1
REMARK  1 active torsions:
REMARK  status: ('A' for Active; 'I' for Inactive)
REMARK    1  A    between atoms: N_2  and  C1_3 
ROOT
ATOM      1  C1  UNL d   1       2.620  -4.305  -0.366  0.00  0.00     0.143 A 
ATOM      2  C2  UNL d   1       3.682  -5.089  -0.828  0.00  0.00    -0.057 A 
ATOM      3  C3  UNL d   1       4.955  -4.541  -1.029  0.00  0.00     0.033 A 
ATOM      4  C4  UNL d   1       5.181  -3.188  -0.798  0.00  0.00    -0.042 A 
ATOM      5  C5  UNL d   1       4.134  -2.384  -0.362  0.00  0.00     0.033 A 
ATOM      6  C6  UNL d   1       2.867  -2.939  -0.157  0.00  0.00    -0.057 A 
ENDROOT
BRANCH   1   7
ATOM      7  N   UNL d   1       1.308  -4.768  -0.240  0.00  0.00    -0.732 N 
ATOM      8  C   UNL d   1       0.274  -4.309  -1.143  0.00  0.00     0.284 C 
ATOM      9  H3  UNL d   1       1.266  -5.763  -0.032  0.00  0.00     0.395 HD
ENDBRANCH   1   7
TORSDOF 1
ENDMDL
