MODEL 1
REMARK minimizedAffinity -1.33082247
REMARK minimizedRMSD -1
REMARK  0 active torsions:
REMARK  status: ('A' for Active; 'I' for Inactive)
ROOT
ATOM      1  C   UNL d   1       5.052   3.411  -4.448  0.00  0.00     0.172 C 
ATOM      2  N   UNL d   1       5.287   2.041  -4.840  0.00  0.00    -0.070 N 
ATOM      3  C1  UNL d   1       4.848   1.456  -5.998  0.00  0.00    -0.004 A 
ATOM      4  C2  UNL d   1       5.278   0.146  -5.998  0.00  0.00    -0.047 A 
ATOM      5  C3  UNL d   1       6.000  -0.063  -4.798  0.00  0.00    -0.047 A 
ATOM      6  C4  UNL d   1       5.990   1.127  -4.101  0.00  0.00    -0.004 A 
ENDROOT
TORSDOF 0
ENDMDL
