MODEL 1
REMARK minimizedAffinity 0.763938367
REMARK minimizedRMSD -1
REMARK  0 active torsions:
REMARK  status: ('A' for Active; 'I' for Inactive)
ROOT
ATOM      1  C   UNL d   1       1.750  -2.425  -0.137  0.00  0.00     0.172 C 
ATOM      2  N   UNL d   1       0.790  -3.350   0.417  0.00  0.00    -0.070 N 
ATOM      3  C1  UNL d   1      -0.566  -3.294   0.240  0.00  0.00    -0.004 A 
ATOM      4  C2  UNL d   1      -1.125  -4.350   0.927  0.00  0.00    -0.047 A 
ATOM      5  C3  UNL d   1      -0.068  -5.065   1.539  0.00  0.00    -0.047 A 
ATOM      6  C4  UNL d   1       1.107  -4.424   1.207  0.00  0.00    -0.004 A 
ENDROOT
TORSDOF 0
ENDMDL
