MODEL 1
REMARK minimizedAffinity -1.68261027
REMARK minimizedRMSD -1
REMARK  0 active torsions:
REMARK  status: ('A' for Active; 'I' for Inactive)
ROOT
ATOM      1  C   UNL d   1      -3.396   2.623   5.692  0.00  0.00     0.172 C 
ATOM      2  N   UNL d   1      -3.709   3.996   5.373  0.00  0.00    -0.070 N 
ATOM      3  C1  UNL d   1      -3.099   4.750   4.406  0.00  0.00    -0.004 A 
ATOM      4  C2  UNL d   1      -3.680   5.999   4.416  0.00  0.00    -0.047 A 
ATOM      5  C3  UNL d   1      -4.674   5.996   5.423  0.00  0.00    -0.047 A 
ATOM      6  C4  UNL d   1      -4.670   4.744   6.000  0.00  0.00    -0.004 A 
ENDROOT
TORSDOF 0
ENDMDL
