MODEL 1
REMARK minimizedAffinity 0.100302473
REMARK minimizedRMSD -1
REMARK  0 active torsions:
REMARK  status: ('A' for Active; 'I' for Inactive)
ROOT
ATOM      1  C   UNL d   1       1.575   0.683  -3.643  0.00  0.00     0.172 C 
ATOM      2  N   UNL d   1       1.264  -0.395  -2.733  0.00  0.00    -0.070 N 
ATOM      3  C1  UNL d   1       0.729  -1.606  -3.082  0.00  0.00    -0.004 A 
ATOM      4  C2  UNL d   1       0.585  -2.351  -1.932  0.00  0.00    -0.047 A 
ATOM      5  C3  UNL d   1       1.049  -1.561  -0.854  0.00  0.00    -0.047 A 
ATOM      6  C4  UNL d   1       1.463  -0.354  -1.378  0.00  0.00    -0.004 A 
ENDROOT
TORSDOF 0
ENDMDL
