MODEL 1
REMARK minimizedAffinity -2.86563087
REMARK minimizedRMSD -1
REMARK  0 active torsions:
REMARK  status: ('A' for Active; 'I' for Inactive)
ROOT
ATOM      1  C   UNL d   1       0.615   1.513  -1.184  0.00  0.00     0.172 C 
ATOM      2  N   UNL d   1       1.030   0.330  -1.901  0.00  0.00    -0.070 N 
ATOM      3  C1  UNL d   1       1.431  -0.849  -1.332  0.00  0.00    -0.004 A 
ATOM      4  C2  UNL d   1       1.743  -1.724  -2.349  0.00  0.00    -0.047 A 
ATOM      5  C3  UNL d   1       1.523  -1.048  -3.573  0.00  0.00    -0.047 A 
ATOM      6  C4  UNL d   1       1.082   0.222  -3.266  0.00  0.00    -0.004 A 
ENDROOT
TORSDOF 0
ENDMDL
