MODEL 1
REMARK minimizedAffinity 1.42312396
REMARK minimizedRMSD -1
REMARK  0 active torsions:
REMARK  status: ('A' for Active; 'I' for Inactive)
ROOT
ATOM      1  C   UNL d   1       1.392  -1.812  -0.463  0.00  0.00     0.172 C 
ATOM      2  N   UNL d   1       1.269  -1.687  -1.896  0.00  0.00    -0.070 N 
ATOM      3  C1  UNL d   1       1.090  -0.516  -2.583  0.00  0.00    -0.004 A 
ATOM      4  C2  UNL d   1       1.021  -0.820  -3.925  0.00  0.00    -0.047 A 
ATOM      5  C3  UNL d   1       1.163  -2.222  -4.050  0.00  0.00    -0.047 A 
ATOM      6  C4  UNL d   1       1.315  -2.734  -2.778  0.00  0.00    -0.004 A 
ENDROOT
TORSDOF 0
ENDMDL
