MODEL 1
REMARK minimizedAffinity 0.513155878
REMARK minimizedRMSD -1
REMARK  0 active torsions:
REMARK  status: ('A' for Active; 'I' for Inactive)
ROOT
ATOM      1  C   UNL d   1       2.127   0.071  -4.330  0.00  0.00     0.172 C 
ATOM      2  N   UNL d   1       1.722  -0.905  -3.347  0.00  0.00    -0.070 N 
ATOM      3  C1  UNL d   1       1.601  -0.681  -2.002  0.00  0.00    -0.004 A 
ATOM      4  C2  UNL d   1       1.192  -1.858  -1.413  0.00  0.00    -0.047 A 
ATOM      5  C3  UNL d   1       1.064  -2.824  -2.440  0.00  0.00    -0.047 A 
ATOM      6  C4  UNL d   1       1.398  -2.207  -3.627  0.00  0.00    -0.004 A 
ENDROOT
TORSDOF 0
ENDMDL
