MODEL 1
REMARK minimizedAffinity 0.988536119
REMARK minimizedRMSD -1
REMARK  0 active torsions:
REMARK  status: ('A' for Active; 'I' for Inactive)
ROOT
ATOM      1  C   UNL d   1       1.381  -2.432  -3.013  0.00  0.00     0.172 C 
ATOM      2  N   UNL d   1       1.076  -1.098  -2.552  0.00  0.00    -0.070 N 
ATOM      3  C1  UNL d   1       0.686  -0.762  -1.283  0.00  0.00    -0.004 A 
ATOM      4  C2  UNL d   1       0.494   0.602  -1.248  0.00  0.00    -0.047 A 
ATOM      5  C3  UNL d   1       0.776   1.103  -2.541  0.00  0.00    -0.047 A 
ATOM      6  C4  UNL d   1       1.134   0.029  -3.328  0.00  0.00    -0.004 A 
ENDROOT
TORSDOF 0
ENDMDL
