MODEL 1
REMARK minimizedAffinity -0.86757046
REMARK minimizedRMSD -1
REMARK  0 active torsions:
REMARK  status: ('A' for Active; 'I' for Inactive)
ROOT
ATOM      1  C   UNL d   1       4.200   3.991  -4.646  0.00  0.00     0.172 C 
ATOM      2  N   UNL d   1       4.784   2.694  -4.895  0.00  0.00    -0.070 N 
ATOM      3  C1  UNL d   1       4.559   1.916  -6.000  0.00  0.00    -0.004 A 
ATOM      4  C2  UNL d   1       5.298   0.761  -5.860  0.00  0.00    -0.047 A 
ATOM      5  C3  UNL d   1       5.990   0.847  -4.629  0.00  0.00    -0.047 A 
ATOM      6  C4  UNL d   1       5.654   2.054  -4.052  0.00  0.00    -0.004 A 
ENDROOT
TORSDOF 0
ENDMDL
