MODEL 1
REMARK minimizedAffinity 0.447796524
REMARK minimizedRMSD -1
REMARK  0 active torsions:
REMARK  status: ('A' for Active; 'I' for Inactive)
ROOT
ATOM      1  C   UNL d   1       5.991  -0.569   5.998  0.00  0.00     0.172 C 
ATOM      2  N   UNL d   1       5.504   0.516   5.179  0.00  0.00    -0.070 N 
ATOM      3  C1  UNL d   1       4.484   0.433   4.268  0.00  0.00    -0.004 A 
ATOM      4  C2  UNL d   1       4.326   1.677   3.698  0.00  0.00    -0.047 A 
ATOM      5  C3  UNL d   1       5.284   2.538   4.286  0.00  0.00    -0.047 A 
ATOM      6  C4  UNL d   1       5.999   1.793   5.199  0.00  0.00    -0.004 A 
ENDROOT
TORSDOF 0
ENDMDL
