MODEL 1
REMARK minimizedAffinity -3.11491728
REMARK minimizedRMSD -1
REMARK  0 active torsions:
REMARK  status: ('A' for Active; 'I' for Inactive)
ROOT
ATOM      1  C   UNL d   1       1.879  -0.017  -4.207  0.00  0.00     0.172 C 
ATOM      2  N   UNL d   1       1.442   0.082  -2.834  0.00  0.00    -0.070 N 
ATOM      3  C1  UNL d   1       1.515  -0.917  -1.899  0.00  0.00    -0.004 A 
ATOM      4  C2  UNL d   1       1.000  -0.428  -0.718  0.00  0.00    -0.047 A 
ATOM      5  C3  UNL d   1       0.602   0.910  -0.952  0.00  0.00    -0.047 A 
ATOM      6  C4  UNL d   1       0.887   1.200  -2.269  0.00  0.00    -0.004 A 
ENDROOT
TORSDOF 0
ENDMDL
