MODEL 1
REMARK minimizedAffinity 0.596110761
REMARK minimizedRMSD -1
REMARK  0 active torsions:
REMARK  status: ('A' for Active; 'I' for Inactive)
ROOT
ATOM      1  C   UNL d   1      -3.053   4.998   2.732  0.00  0.00     0.172 C 
ATOM      2  N   UNL d   1      -3.802   5.383   3.905  0.00  0.00    -0.070 N 
ATOM      3  C1  UNL d   1      -5.156   5.582   3.958  0.00  0.00    -0.004 A 
ATOM      4  C2  UNL d   1      -5.480   5.936   5.250  0.00  0.00    -0.047 A 
ATOM      5  C3  UNL d   1      -4.279   5.951   5.999  0.00  0.00    -0.047 A 
ATOM      6  C4  UNL d   1      -3.256   5.605   5.142  0.00  0.00    -0.004 A 
ENDROOT
TORSDOF 0
ENDMDL
