MODEL 1
REMARK minimizedAffinity -0.535793424
REMARK minimizedRMSD -1
REMARK  0 active torsions:
REMARK  status: ('A' for Active; 'I' for Inactive)
ROOT
ATOM      1  C   UNL d   1       0.553   1.553  -0.939  0.00  0.00     0.172 C 
ATOM      2  N   UNL d   1       0.972   0.511  -1.847  0.00  0.00    -0.070 N 
ATOM      3  C1  UNL d   1       1.335   0.691  -3.155  0.00  0.00    -0.004 A 
ATOM      4  C2  UNL d   1       1.666  -0.542  -3.674  0.00  0.00    -0.047 A 
ATOM      5  C3  UNL d   1       1.494  -1.496  -2.643  0.00  0.00    -0.047 A 
ATOM      6  C4  UNL d   1       1.064  -0.817  -1.523  0.00  0.00    -0.004 A 
ENDROOT
TORSDOF 0
ENDMDL
