MODEL 1
REMARK minimizedAffinity -0.221295372
REMARK minimizedRMSD -1
REMARK  0 active torsions:
REMARK  status: ('A' for Active; 'I' for Inactive)
ROOT
ATOM      1  C   UNL d   1      -5.408   6.000   6.000  0.00  0.00     0.172 C 
ATOM      2  N   UNL d   1      -4.510   5.155   5.248  0.00  0.00    -0.070 N 
ATOM      3  C1  UNL d   1      -4.234   3.842   5.521  0.00  0.00    -0.004 A 
ATOM      4  C2  UNL d   1      -3.335   3.395   4.577  0.00  0.00    -0.047 A 
ATOM      5  C3  UNL d   1      -3.061   4.477   3.707  0.00  0.00    -0.047 A 
ATOM      6  C4  UNL d   1      -3.801   5.554   4.146  0.00  0.00    -0.004 A 
ENDROOT
TORSDOF 0
ENDMDL
