MODEL 1
REMARK minimizedAffinity -0.294927329
REMARK minimizedRMSD -1
REMARK  0 active torsions:
REMARK  status: ('A' for Active; 'I' for Inactive)
ROOT
ATOM      1  C   UNL d   1       1.359  -2.342  -2.785  0.00  0.00     0.172 C 
ATOM      2  N   UNL d   1       1.129  -0.923  -2.649  0.00  0.00    -0.070 N 
ATOM      3  C1  UNL d   1       0.584  -0.303  -1.556  0.00  0.00    -0.004 A 
ATOM      4  C2  UNL d   1       0.534   1.049  -1.819  0.00  0.00    -0.047 A 
ATOM      5  C3  UNL d   1       1.066   1.249  -3.115  0.00  0.00    -0.047 A 
ATOM      6  C4  UNL d   1       1.426   0.011  -3.606  0.00  0.00    -0.004 A 
ENDROOT
TORSDOF 0
ENDMDL
