MODEL 1
REMARK minimizedAffinity 13.8168163
REMARK minimizedRMSD -1
REMARK  0 active torsions:
REMARK  status: ('A' for Active; 'I' for Inactive)
ROOT
ATOM      1  N1  IND d   1       2.251   5.901  -2.794  0.00  0.00    -0.196 N 
ATOM      2  C2  IND d   1       2.550   5.963  -1.462  0.00  0.00     0.054 A 
ATOM      3  C3  IND d   1       3.890   5.970  -1.281  0.00  0.00    -0.031 A 
ATOM      4  C4  IND d   1       5.777   5.990  -3.032  0.00  0.00     0.051 A 
ATOM      5  C5  IND d   1       5.999   5.906  -4.378  0.00  0.00    -0.031 A 
ATOM      6  C6  IND d   1       4.961   5.816  -5.283  0.00  0.00     0.015 A 
ATOM      7  C7  IND d   1       3.657   5.819  -4.875  0.00  0.00    -0.016 A 
ATOM      8  C8  IND d   1       3.429   5.898  -3.509  0.00  0.00    -0.047 A 
ATOM      9  C9  IND d   1       4.478   5.946  -2.582  0.00  0.00    -0.096 A 
ATOM     10  HN1 IND d   1       1.460   5.870  -3.130  0.00  0.00     0.298 HD
ENDROOT
TORSDOF 0
ENDMDL
