MODEL 1
REMARK minimizedAffinity 8.6322403
REMARK minimizedRMSD -1
REMARK  0 active torsions:
REMARK  status: ('A' for Active; 'I' for Inactive)
ROOT
ATOM      1  N1  IND d   1       0.884  -4.133   3.751  0.00  0.00    -0.196 N 
ATOM      2  C2  IND d   1       1.797  -3.764   4.700  0.00  0.00     0.054 A 
ATOM      3  C3  IND d   1       2.311  -2.548   4.411  0.00  0.00    -0.031 A 
ATOM      4  C4  IND d   1       1.726  -0.940   2.487  0.00  0.00     0.051 A 
ATOM      5  C5  IND d   1       0.977  -0.851   1.347  0.00  0.00    -0.031 A 
ATOM      6  C6  IND d   1       0.140  -1.871   0.944  0.00  0.00     0.015 A 
ATOM      7  C7  IND d   1       0.012  -3.018   1.674  0.00  0.00    -0.016 A 
ATOM      8  C8  IND d   1       0.776  -3.115   2.828  0.00  0.00    -0.047 A 
ATOM      9  C9  IND d   1       1.659  -2.101   3.221  0.00  0.00    -0.096 A 
ATOM     10  HN1 IND d   1       0.451  -4.875   3.733  0.00  0.00     0.298 HD
ENDROOT
TORSDOF 0
ENDMDL
