MODEL 1
REMARK minimizedAffinity 12.5736179
REMARK minimizedRMSD -1
REMARK  0 active torsions:
REMARK  status: ('A' for Active; 'I' for Inactive)
ROOT
ATOM      1  N1  IND d   1       1.114  -2.480   2.708  0.00  0.00    -0.196 N 
ATOM      2  C2  IND d   1       1.494  -1.299   2.132  0.00  0.00     0.054 A 
ATOM      3  C3  IND d   1       2.798  -1.051   2.385  0.00  0.00    -0.031 A 
ATOM      4  C4  IND d   1       4.525  -2.493   3.636  0.00  0.00     0.051 A 
ATOM      5  C5  IND d   1       4.642  -3.640   4.371  0.00  0.00    -0.031 A 
ATOM      6  C6  IND d   1       3.567  -4.477   4.591  0.00  0.00     0.015 A 
ATOM      7  C7  IND d   1       2.333  -4.202   4.072  0.00  0.00    -0.016 A 
ATOM      8  C8  IND d   1       2.209  -3.035   3.332  0.00  0.00    -0.047 A 
ATOM      9  C9  IND d   1       3.287  -2.160   3.141  0.00  0.00    -0.096 A 
ATOM     10  HN1 IND d   1       0.324  -2.818   2.685  0.00  0.00     0.298 HD
ENDROOT
TORSDOF 0
ENDMDL
