MODEL 1
REMARK minimizedAffinity 3.11154032
REMARK minimizedRMSD -1
REMARK  0 active torsions:
REMARK  status: ('A' for Active; 'I' for Inactive)
ROOT
ATOM      1  N1  IND d   1       0.747  -1.315   1.862  0.00  0.00    -0.196 N 
ATOM      2  C2  IND d   1       1.551  -1.491   2.953  0.00  0.00     0.054 A 
ATOM      3  C3  IND d   1       2.412  -0.456   3.076  0.00  0.00    -0.031 A 
ATOM      4  C4  IND d   1       2.609   1.683   1.658  0.00  0.00     0.051 A 
ATOM      5  C5  IND d   1       2.115   2.278   0.531  0.00  0.00    -0.031 A 
ATOM      6  C6  IND d   1       1.117   1.696  -0.223  0.00  0.00     0.015 A 
ATOM      7  C7  IND d   1       0.566   0.496   0.129  0.00  0.00    -0.016 A 
ATOM      8  C8  IND d   1       1.071  -0.115   1.268  0.00  0.00    -0.047 A 
ATOM      9  C9  IND d   1       2.113   0.452   2.014  0.00  0.00    -0.096 A 
ATOM     10  HN1 IND d   1       0.141  -1.862   1.591  0.00  0.00     0.298 HD
ENDROOT
TORSDOF 0
ENDMDL
