MODEL 1
REMARK minimizedAffinity -0.0259638298
REMARK minimizedRMSD -1
REMARK  0 active torsions:
REMARK  status: ('A' for Active; 'I' for Inactive)
ROOT
ATOM      1  N1  IND d   1       4.492  -2.177  -4.054  0.00  0.00    -0.196 N 
ATOM      2  C2  IND d   1       3.896  -1.488  -5.073  0.00  0.00     0.054 A 
ATOM      3  C3  IND d   1       3.412  -2.344  -6.000  0.00  0.00    -0.031 A 
ATOM      4  C4  IND d   1       3.396  -4.919  -5.998  0.00  0.00     0.051 A 
ATOM      5  C5  IND d   1       3.855  -5.998  -5.297  0.00  0.00    -0.031 A 
ATOM      6  C6  IND d   1       4.562  -5.857  -4.120  0.00  0.00     0.015 A 
ATOM      7  C7  IND d   1       4.827  -4.625  -3.593  0.00  0.00    -0.016 A 
ATOM      8  C8  IND d   1       4.368  -3.526  -4.306  0.00  0.00    -0.047 A 
ATOM      9  C9  IND d   1       3.688  -3.662  -5.522  0.00  0.00    -0.096 A 
ATOM     10  HN1 IND d   1       4.879  -1.827  -3.370  0.00  0.00     0.298 HD
ENDROOT
TORSDOF 0
ENDMDL
