MODEL 1
REMARK minimizedAffinity 2.95047235
REMARK minimizedRMSD -1
REMARK  0 active torsions:
REMARK  status: ('A' for Active; 'I' for Inactive)
ROOT
ATOM      1  N1  IND d   1       0.919  -1.882   2.347  0.00  0.00    -0.196 N 
ATOM      2  C2  IND d   1       0.420  -2.190   1.112  0.00  0.00     0.054 A 
ATOM      3  C3  IND d   1       0.607  -1.159   0.259  0.00  0.00    -0.031 A 
ATOM      4  C4  IND d   1       1.801   1.089   0.647  0.00  0.00     0.051 A 
ATOM      5  C5  IND d   1       2.390   1.841   1.624  0.00  0.00    -0.031 A 
ATOM      6  C6  IND d   1       2.523   1.381   2.918  0.00  0.00     0.015 A 
ATOM      7  C7  IND d   1       2.081   0.140   3.282  0.00  0.00    -0.016 A 
ATOM      8  C8  IND d   1       1.477  -0.624   2.293  0.00  0.00    -0.047 A 
ATOM      9  C9  IND d   1       1.300  -0.145   0.989  0.00  0.00    -0.096 A 
ATOM     10  HN1 IND d   1       0.889  -2.390   3.041  0.00  0.00     0.298 HD
ENDROOT
TORSDOF 0
ENDMDL
