MODEL 1
REMARK minimizedAffinity 2.17506123
REMARK minimizedRMSD -1
REMARK  0 active torsions:
REMARK  status: ('A' for Active; 'I' for Inactive)
ROOT
ATOM      1  N1  IND d   1      -0.429  -0.636   0.432  0.00  0.00    -0.196 N 
ATOM      2  C2  IND d   1      -1.186   0.166  -0.376  0.00  0.00     0.054 A 
ATOM      3  C3  IND d   1      -1.454  -0.460  -1.543  0.00  0.00    -0.031 A 
ATOM      4  C4  IND d   1      -0.838  -2.842  -2.301  0.00  0.00     0.051 A 
ATOM      5  C5  IND d   1      -0.121  -3.942  -1.920  0.00  0.00    -0.031 A 
ATOM      6  C6  IND d   1       0.541  -3.998  -0.711  0.00  0.00     0.015 A 
ATOM      7  C7  IND d   1       0.501  -2.956   0.172  0.00  0.00    -0.016 A 
ATOM      8  C8  IND d   1      -0.220  -1.835  -0.214  0.00  0.00    -0.047 A 
ATOM      9  C9  IND d   1      -0.859  -1.756  -1.458  0.00  0.00    -0.096 A 
ATOM     10  HN1 IND d   1      -0.133  -0.427   1.211  0.00  0.00     0.298 HD
ENDROOT
TORSDOF 0
ENDMDL
