MODEL 1
REMARK minimizedAffinity 8.80003071
REMARK minimizedRMSD -1
REMARK  0 active torsions:
REMARK  status: ('A' for Active; 'I' for Inactive)
ROOT
ATOM      1  N1  IND d   1      -0.572  -0.659   0.803  0.00  0.00    -0.196 N 
ATOM      2  C2  IND d   1      -1.476   0.128   0.144  0.00  0.00     0.054 A 
ATOM      3  C3  IND d   1      -1.953  -0.516  -0.945  0.00  0.00    -0.031 A 
ATOM      4  C4  IND d   1      -1.466  -2.902  -1.779  0.00  0.00     0.051 A 
ATOM      5  C5  IND d   1      -0.680  -3.992  -1.528  0.00  0.00    -0.031 A 
ATOM      6  C6  IND d   1       0.199  -4.027  -0.465  0.00  0.00     0.015 A 
ATOM      7  C7  IND d   1       0.316  -2.974   0.398  0.00  0.00    -0.016 A 
ATOM      8  C8  IND d   1      -0.476  -1.864   0.143  0.00  0.00    -0.047 A 
ATOM      9  C9  IND d   1      -1.339  -1.806  -0.959  0.00  0.00    -0.096 A 
ATOM     10  HN1 IND d   1      -0.136  -0.437   1.510  0.00  0.00     0.298 HD
ENDROOT
TORSDOF 0
ENDMDL
