MODEL 1
REMARK minimizedAffinity 2.81402206
REMARK minimizedRMSD -1
REMARK  0 active torsions:
REMARK  status: ('A' for Active; 'I' for Inactive)
ROOT
ATOM      1  N1  IND d   1      -1.648  -0.964   0.202  0.00  0.00    -0.196 N 
ATOM      2  C2  IND d   1      -0.890  -2.035   0.585  0.00  0.00     0.054 A 
ATOM      3  C3  IND d   1       0.382  -1.648   0.828  0.00  0.00    -0.031 A 
ATOM      4  C4  IND d   1       1.416   0.709   0.759  0.00  0.00     0.051 A 
ATOM      5  C5  IND d   1       1.127   2.003   0.428  0.00  0.00    -0.031 A 
ATOM      6  C6  IND d   1      -0.128   2.382  -0.001  0.00  0.00     0.015 A 
ATOM      7  C7  IND d   1      -1.149   1.480  -0.105  0.00  0.00    -0.016 A 
ATOM      8  C8  IND d   1      -0.857   0.164   0.224  0.00  0.00    -0.047 A 
ATOM      9  C9  IND d   1       0.427  -0.235   0.619  0.00  0.00    -0.096 A 
ATOM     10  HN1 IND d   1      -2.480  -0.990  -0.015  0.00  0.00     0.298 HD
ENDROOT
TORSDOF 0
ENDMDL
