MODEL 1
REMARK minimizedAffinity -0.595606625
REMARK minimizedRMSD -1
REMARK  0 active torsions:
REMARK  status: ('A' for Active; 'I' for Inactive)
ROOT
ATOM      1  N1  IND d   1      -1.381  -0.554   0.865  0.00  0.00    -0.196 N 
ATOM      2  C2  IND d   1      -2.228  -0.425  -0.200  0.00  0.00     0.054 A 
ATOM      3  C3  IND d   1      -2.032  -1.431  -1.082  0.00  0.00    -0.031 A 
ATOM      4  C4  IND d   1      -0.446  -3.453  -0.931  0.00  0.00     0.051 A 
ATOM      5  C5  IND d   1       0.551  -3.984  -0.162  0.00  0.00    -0.031 A 
ATOM      6  C6  IND d   1       0.962  -3.389   1.013  0.00  0.00     0.015 A 
ATOM      7  C7  IND d   1       0.380  -2.241   1.471  0.00  0.00    -0.016 A 
ATOM      8  C8  IND d   1      -0.628  -1.695   0.690  0.00  0.00    -0.047 A 
ATOM      9  C9  IND d   1      -1.020  -2.271  -0.525  0.00  0.00    -0.096 A 
ATOM     10  HN1 IND d   1      -1.327  -0.014   1.532  0.00  0.00     0.298 HD
ENDROOT
TORSDOF 0
ENDMDL
