MODEL 1
REMARK minimizedAffinity 4.87414598
REMARK minimizedRMSD -1
REMARK  2 active torsions:
REMARK  status: ('A' for Active; 'I' for Inactive)
REMARK    1  A    between atoms: C1_2  and  C2_3 
REMARK    2  A    between atoms: C2_3  and  C3_4 
ROOT
ATOM      1  C3  UNL d   1       2.135  -2.600   2.039  0.00  0.00    -0.075 A 
ATOM      2  C4  UNL d   1       2.686  -3.276   0.940  0.00  0.00     0.002 A 
ATOM      3  C5  UNL d   1       3.917  -3.923   1.052  0.00  0.00     0.002 A 
ATOM      4  C6  UNL d   1       4.616  -3.895   2.256  0.00  0.00    -0.004 A 
ATOM      5  C7  UNL d   1       4.086  -3.212   3.349  0.00  0.00     0.002 A 
ATOM      6  C8  UNL d   1       2.853  -2.567   3.242  0.00  0.00     0.002 A 
ENDROOT
BRANCH   1   7
ATOM      7  C2  UNL d   1       0.790  -1.922   1.933  0.00  0.00     0.056 C 
BRANCH   7   8
ATOM      8  C1  UNL d   1       0.543  -0.855   3.005  0.00  0.00     0.007 C 
ATOM      9  C   UNL d   1      -0.924  -0.474   3.146  0.00  0.00     0.009 C 
ENDBRANCH   7   8
ENDBRANCH   1   7
TORSDOF 2
ENDMDL
