MODEL 1
REMARK minimizedAffinity -3.05972362
REMARK minimizedRMSD -1
REMARK  2 active torsions:
REMARK  status: ('A' for Active; 'I' for Inactive)
REMARK    1  A    between atoms: C1_2  and  C2_3 
REMARK    2  A    between atoms: C2_3  and  C3_4 
ROOT
ATOM      1  C3  UNL d   1       2.751  -1.605  -0.354  0.00  0.00    -0.075 A 
ATOM      2  C4  UNL d   1       3.748  -2.557  -0.611  0.00  0.00     0.002 A 
ATOM      3  C5  UNL d   1       3.815  -3.733   0.137  0.00  0.00     0.002 A 
ATOM      4  C6  UNL d   1       2.894  -3.967   1.156  0.00  0.00    -0.004 A 
ATOM      5  C7  UNL d   1       1.909  -3.021   1.431  0.00  0.00     0.002 A 
ATOM      6  C8  UNL d   1       1.837  -1.845   0.681  0.00  0.00     0.002 A 
ENDROOT
BRANCH   1   7
ATOM      7  C2  UNL d   1       2.655  -0.344  -1.179  0.00  0.00     0.056 C 
BRANCH   7   8
ATOM      8  C1  UNL d   1       3.739   0.692  -0.863  0.00  0.00     0.007 C 
ATOM      9  C   UNL d   1       3.243   1.829   0.021  0.00  0.00     0.009 C 
ENDBRANCH   7   8
ENDBRANCH   1   7
TORSDOF 2
ENDMDL
