MODEL 1
REMARK minimizedAffinity 8.22367764
REMARK minimizedRMSD -1
REMARK  2 active torsions:
REMARK  status: ('A' for Active; 'I' for Inactive)
REMARK    1  A    between atoms: C1_2  and  C2_3 
REMARK    2  A    between atoms: C2_3  and  C3_4 
ROOT
ATOM      1  C3  UNL d   1       4.045  -3.624   3.399  0.00  0.00    -0.075 A 
ATOM      2  C4  UNL d   1       4.433  -4.905   3.818  0.00  0.00     0.002 A 
ATOM      3  C5  UNL d   1       4.910  -5.113   5.112  0.00  0.00     0.002 A 
ATOM      4  C6  UNL d   1       5.015  -4.044   5.999  0.00  0.00    -0.004 A 
ATOM      5  C7  UNL d   1       4.648  -2.764   5.589  0.00  0.00     0.002 A 
ATOM      6  C8  UNL d   1       4.167  -2.554   4.296  0.00  0.00     0.002 A 
ENDROOT
BRANCH   1   7
ATOM      7  C2  UNL d   1       3.501  -3.397   2.009  0.00  0.00     0.056 C 
BRANCH   7   8
ATOM      8  C1  UNL d   1       1.970  -3.387   1.933  0.00  0.00     0.007 C 
ATOM      9  C   UNL d   1       1.379  -1.984   1.912  0.00  0.00     0.009 C 
ENDBRANCH   7   8
ENDBRANCH   1   7
TORSDOF 2
ENDMDL
