MODEL 1
REMARK minimizedAffinity -2.5068624
REMARK minimizedRMSD -1
REMARK  2 active torsions:
REMARK  status: ('A' for Active; 'I' for Inactive)
REMARK    1  A    between atoms: C1_2  and  C2_3 
REMARK    2  A    between atoms: C2_3  and  C3_4 
ROOT
ATOM      1  C3  UNL d   1       2.207  -2.796   0.949  0.00  0.00    -0.075 A 
ATOM      2  C4  UNL d   1       2.276  -1.782  -0.017  0.00  0.00     0.002 A 
ATOM      3  C5  UNL d   1       1.391  -0.704   0.023  0.00  0.00     0.002 A 
ATOM      4  C6  UNL d   1       0.421  -0.631   1.021  0.00  0.00    -0.004 A 
ATOM      5  C7  UNL d   1       0.333  -1.641   1.976  0.00  0.00     0.002 A 
ATOM      6  C8  UNL d   1       1.220  -2.719   1.941  0.00  0.00     0.002 A 
ENDROOT
BRANCH   1   7
ATOM      7  C2  UNL d   1       3.181  -3.950   0.929  0.00  0.00     0.056 C 
BRANCH   7   8
ATOM      8  C1  UNL d   1       3.637  -4.405   2.319  0.00  0.00     0.007 C 
ATOM      9  C   UNL d   1       4.643  -5.548   2.276  0.00  0.00     0.009 C 
ENDBRANCH   7   8
ENDBRANCH   1   7
TORSDOF 2
ENDMDL
