MODEL 1
REMARK minimizedAffinity 0.687613308
REMARK minimizedRMSD -1
REMARK  2 active torsions:
REMARK  status: ('A' for Active; 'I' for Inactive)
REMARK    1  A    between atoms: C1_2  and  C2_3 
REMARK    2  A    between atoms: C2_3  and  C3_4 
ROOT
ATOM      1  C3  UNL d   1       0.219  -1.528   2.264  0.00  0.00    -0.075 A 
ATOM      2  C4  UNL d   1       1.264  -2.410   1.949  0.00  0.00     0.002 A 
ATOM      3  C5  UNL d   1       1.226  -3.735   2.382  0.00  0.00     0.002 A 
ATOM      4  C6  UNL d   1       0.153  -4.193   3.143  0.00  0.00    -0.004 A 
ATOM      5  C7  UNL d   1      -0.882  -3.321   3.476  0.00  0.00     0.002 A 
ATOM      6  C8  UNL d   1      -0.850  -1.996   3.039  0.00  0.00     0.002 A 
ENDROOT
BRANCH   1   7
ATOM      7  C2  UNL d   1       0.239  -0.100   1.772  0.00  0.00     0.056 C 
BRANCH   7   8
ATOM      8  C1  UNL d   1      -1.066   0.349   1.107  0.00  0.00     0.007 C 
ATOM      9  C   UNL d   1      -1.142  -0.014  -0.370  0.00  0.00     0.009 C 
ENDBRANCH   7   8
ENDBRANCH   1   7
TORSDOF 2
ENDMDL
