MODEL 1
REMARK minimizedAffinity -0.812932491
REMARK minimizedRMSD -1
REMARK  2 active torsions:
REMARK  status: ('A' for Active; 'I' for Inactive)
REMARK    1  A    between atoms: C1_2  and  C2_3 
REMARK    2  A    between atoms: C2_3  and  C3_4 
ROOT
ATOM      1  C3  UNL d   1       0.371  -0.507   0.217  0.00  0.00    -0.075 A 
ATOM      2  C4  UNL d   1      -0.833  -0.148  -0.407  0.00  0.00     0.002 A 
ATOM      3  C5  UNL d   1      -1.971   0.125   0.353  0.00  0.00     0.002 A 
ATOM      4  C6  UNL d   1      -1.923   0.034   1.742  0.00  0.00    -0.004 A 
ATOM      5  C7  UNL d   1      -0.737  -0.338   2.372  0.00  0.00     0.002 A 
ATOM      6  C8  UNL d   1       0.405  -0.608   1.614  0.00  0.00     0.002 A 
ENDROOT
BRANCH   1   7
ATOM      7  C2  UNL d   1       1.613  -0.775  -0.598  0.00  0.00     0.056 C 
BRANCH   7   8
ATOM      8  C1  UNL d   1       2.755   0.213  -0.339  0.00  0.00     0.007 C 
ATOM      9  C   UNL d   1       3.096   1.068  -1.552  0.00  0.00     0.009 C 
ENDBRANCH   7   8
ENDBRANCH   1   7
TORSDOF 2
ENDMDL
