MODEL 1
REMARK minimizedAffinity -1.66552567
REMARK minimizedRMSD -1
REMARK  0 active torsions:
REMARK  status: ('A' for Active; 'I' for Inactive)
ROOT
ATOM      1  C1  BNZ d   1      -0.007   1.871  -0.894  0.00  0.00     0.000 A 
ATOM      2  C2  BNZ d   1       0.775   0.980  -1.579  0.00  0.00     0.000 A 
ATOM      3  C3  BNZ d   1       0.850  -0.329  -1.192  0.00  0.00     0.000 A 
ATOM      4  C4  BNZ d   1       0.175  -0.735  -0.097  0.00  0.00     0.000 A 
ATOM      5  C5  BNZ d   1      -0.610   0.153   0.610  0.00  0.00     0.000 A 
ATOM      6  C6  BNZ d   1      -0.714   1.460   0.194  0.00  0.00     0.000 A 
ENDROOT
TORSDOF 0
ENDMDL
