MODEL 1
REMARK minimizedAffinity -4.9389143
REMARK minimizedRMSD -1
REMARK  0 active torsions:
REMARK  status: ('A' for Active; 'I' for Inactive)
ROOT
ATOM      1  C1  BNZ d   1      -1.492   2.671   0.275  0.00  0.00     0.000 A 
ATOM      2  C2  BNZ d   1      -1.896   2.233   1.508  0.00  0.00     0.000 A 
ATOM      3  C3  BNZ d   1      -1.550   0.990   1.957  0.00  0.00     0.000 A 
ATOM      4  C4  BNZ d   1      -0.836   0.171   1.159  0.00  0.00     0.000 A 
ATOM      5  C5  BNZ d   1      -0.429   0.594  -0.091  0.00  0.00     0.000 A 
ATOM      6  C6  BNZ d   1      -0.745   1.861  -0.524  0.00  0.00     0.000 A 
ENDROOT
TORSDOF 0
ENDMDL
