MODEL 1
REMARK minimizedAffinity -2.28266859
REMARK minimizedRMSD -1
REMARK  0 active torsions:
REMARK  status: ('A' for Active; 'I' for Inactive)
ROOT
ATOM      1  C1  BNZ d   1       1.086  -3.471  -1.551  0.00  0.00     0.000 A 
ATOM      2  C2  BNZ d   1       1.510  -2.710  -0.494  0.00  0.00     0.000 A 
ATOM      3  C3  BNZ d   1       1.446  -1.346  -0.544  0.00  0.00     0.000 A 
ATOM      4  C4  BNZ d   1       0.997  -0.744  -1.664  0.00  0.00     0.000 A 
ATOM      5  C5  BNZ d   1       0.574  -1.497  -2.742  0.00  0.00     0.000 A 
ATOM      6  C6  BNZ d   1       0.604  -2.871  -2.673  0.00  0.00     0.000 A 
ENDROOT
TORSDOF 0
ENDMDL
