MODEL 1
REMARK minimizedAffinity -5.06428003
REMARK minimizedRMSD -1
REMARK  0 active torsions:
REMARK  status: ('A' for Active; 'I' for Inactive)
ROOT
ATOM      1  C1  BNZ d   1       0.030   1.343  -0.464  0.00  0.00     0.000 A 
ATOM      2  C2  BNZ d   1      -0.666   0.960   0.652  0.00  0.00     0.000 A 
ATOM      3  C3  BNZ d   1      -1.232   1.891   1.477  0.00  0.00     0.000 A 
ATOM      4  C4  BNZ d   1      -1.069   3.202   1.209  0.00  0.00     0.000 A 
ATOM      5  C5  BNZ d   1      -0.362   3.605   0.093  0.00  0.00     0.000 A 
ATOM      6  C6  BNZ d   1       0.174   2.664  -0.757  0.00  0.00     0.000 A 
ENDROOT
TORSDOF 0
ENDMDL
