MODEL 1
REMARK minimizedAffinity -0.971378922
REMARK minimizedRMSD -1
REMARK  0 active torsions:
REMARK  status: ('A' for Active; 'I' for Inactive)
ROOT
ATOM      1  C1  BNZ d   1       0.041  -1.921  -2.230  0.00  0.00     0.000 A 
ATOM      2  C2  BNZ d   1      -0.601  -2.979  -2.817  0.00  0.00     0.000 A 
ATOM      3  C3  BNZ d   1      -0.221  -4.265  -2.548  0.00  0.00     0.000 A 
ATOM      4  C4  BNZ d   1       0.825  -4.489  -1.726  0.00  0.00     0.000 A 
ATOM      5  C5  BNZ d   1       1.488  -3.433  -1.134  0.00  0.00     0.000 A 
ATOM      6  C6  BNZ d   1       1.078  -2.142  -1.376  0.00  0.00     0.000 A 
ENDROOT
TORSDOF 0
ENDMDL
