MODEL 1
REMARK minimizedAffinity -4.61603594
REMARK minimizedRMSD -1
REMARK  0 active torsions:
REMARK  status: ('A' for Active; 'I' for Inactive)
ROOT
ATOM      1  C1  BNZ d   1      -0.545  -0.038   1.822  0.00  0.00     0.000 A 
ATOM      2  C2  BNZ d   1      -1.453   0.943   2.119  0.00  0.00     0.000 A 
ATOM      3  C3  BNZ d   1      -1.857   1.834   1.164  0.00  0.00     0.000 A 
ATOM      4  C4  BNZ d   1      -1.324   1.768  -0.073  0.00  0.00     0.000 A 
ATOM      5  C5  BNZ d   1      -0.400   0.790  -0.385  0.00  0.00     0.000 A 
ATOM      6  C6  BNZ d   1      -0.025  -0.129   0.568  0.00  0.00     0.000 A 
ENDROOT
TORSDOF 0
ENDMDL
