MODEL 1
REMARK minimizedAffinity -1.90666163
REMARK minimizedRMSD -1
REMARK  0 active torsions:
REMARK  status: ('A' for Active; 'I' for Inactive)
ROOT
ATOM      1  C1  BNZ d   1      -1.021   0.677   1.277  0.00  0.00     0.000 A 
ATOM      2  C2  BNZ d   1      -1.428   1.810   1.929  0.00  0.00     0.000 A 
ATOM      3  C3  BNZ d   1      -1.371   3.030   1.316  0.00  0.00     0.000 A 
ATOM      4  C4  BNZ d   1      -0.869   3.121   0.067  0.00  0.00     0.000 A 
ATOM      5  C5  BNZ d   1      -0.445   1.990  -0.600  0.00  0.00     0.000 A 
ATOM      6  C6  BNZ d   1      -0.541   0.758   0.006  0.00  0.00     0.000 A 
ENDROOT
TORSDOF 0
ENDMDL
