MODEL 1
REMARK minimizedAffinity -0.816461146
REMARK minimizedRMSD -1
REMARK  0 active torsions:
REMARK  status: ('A' for Active; 'I' for Inactive)
ROOT
ATOM      1  C1  BNZ d   1       0.826  -3.519  -1.838  0.00  0.00     0.000 A 
ATOM      2  C2  BNZ d   1       1.014  -2.794  -0.692  0.00  0.00     0.000 A 
ATOM      3  C3  BNZ d   1       0.801  -1.443  -0.675  0.00  0.00     0.000 A 
ATOM      4  C4  BNZ d   1       0.441  -0.815  -1.812  0.00  0.00     0.000 A 
ATOM      5  C5  BNZ d   1       0.256  -1.530  -2.978  0.00  0.00     0.000 A 
ATOM      6  C6  BNZ d   1       0.433  -2.895  -2.982  0.00  0.00     0.000 A 
ENDROOT
TORSDOF 0
ENDMDL
