MODEL 1
REMARK minimizedAffinity -1.94827008
REMARK minimizedRMSD -1
REMARK  0 active torsions:
REMARK  status: ('A' for Active; 'I' for Inactive)
ROOT
ATOM      1  C1  BNZ d   1      -1.181   1.095   0.109  0.00  0.00     0.000 A 
ATOM      2  C2  BNZ d   1      -0.732   0.021   0.829  0.00  0.00     0.000 A 
ATOM      3  C3  BNZ d   1       0.283  -0.763   0.357  0.00  0.00     0.000 A 
ATOM      4  C4  BNZ d   1       0.821  -0.496  -0.850  0.00  0.00     0.000 A 
ATOM      5  C5  BNZ d   1       0.373   0.578  -1.593  0.00  0.00     0.000 A 
ATOM      6  C6  BNZ d   1      -0.623   1.388  -1.097  0.00  0.00     0.000 A 
ENDROOT
TORSDOF 0
ENDMDL
