MODEL 1
REMARK minimizedAffinity -3.93453312
REMARK minimizedRMSD -1
REMARK  0 active torsions:
REMARK  status: ('A' for Active; 'I' for Inactive)
ROOT
ATOM      1  C1  BNZ d   1      -0.132  -0.150   2.057  0.00  0.00     0.000 A 
ATOM      2  C2  BNZ d   1      -0.842   0.897   2.582  0.00  0.00     0.000 A 
ATOM      3  C3  BNZ d   1      -1.480   1.789   1.767  0.00  0.00     0.000 A 
ATOM      4  C4  BNZ d   1      -1.374   1.657   0.429  0.00  0.00     0.000 A 
ATOM      5  C5  BNZ d   1      -0.655   0.612  -0.116  0.00  0.00     0.000 A 
ATOM      6  C6  BNZ d   1      -0.046  -0.306   0.708  0.00  0.00     0.000 A 
ENDROOT
TORSDOF 0
ENDMDL
