MODEL 1
REMARK minimizedAffinity -4.14294434
REMARK minimizedRMSD -1
REMARK  0 active torsions:
REMARK  status: ('A' for Active; 'I' for Inactive)
ROOT
ATOM      1  C1  BNZ d   1      -0.295  -0.293   2.043  0.00  0.00     0.000 A 
ATOM      2  C2  BNZ d   1      -1.267   0.615   2.367  0.00  0.00     0.000 A 
ATOM      3  C3  BNZ d   1      -1.807   1.432   1.415  0.00  0.00     0.000 A 
ATOM      4  C4  BNZ d   1      -1.347   1.369   0.148  0.00  0.00     0.000 A 
ATOM      5  C5  BNZ d   1      -0.361   0.465  -0.193  0.00  0.00     0.000 A 
ATOM      6  C6  BNZ d   1       0.153  -0.383   0.761  0.00  0.00     0.000 A 
ENDROOT
TORSDOF 0
ENDMDL
