MODEL 1
REMARK minimizedAffinity -2.87824607
REMARK minimizedRMSD -1
REMARK  0 active torsions:
REMARK  status: ('A' for Active; 'I' for Inactive)
ROOT
ATOM      1  C1  BNZ d   1      -0.077  -1.775  -2.936  0.00  0.00     0.000 A 
ATOM      2  C2  BNZ d   1      -0.031  -0.495  -2.452  0.00  0.00     0.000 A 
ATOM      3  C3  BNZ d   1       0.590  -0.216  -1.267  0.00  0.00     0.000 A 
ATOM      4  C4  BNZ d   1       1.128  -1.223  -0.548  0.00  0.00     0.000 A 
ATOM      5  C5  BNZ d   1       1.082  -2.520  -1.017  0.00  0.00     0.000 A 
ATOM      6  C6  BNZ d   1       0.490  -2.791  -2.230  0.00  0.00     0.000 A 
ENDROOT
TORSDOF 0
ENDMDL
