MODEL 1
REMARK minimizedAffinity -3.72682977
REMARK minimizedRMSD -1
REMARK  0 active torsions:
REMARK  status: ('A' for Active; 'I' for Inactive)
ROOT
ATOM      1  C1  BNZ d   1      -1.669   2.907   1.075  0.00  0.00     0.000 A 
ATOM      2  C2  BNZ d   1      -0.980   3.275  -0.050  0.00  0.00     0.000 A 
ATOM      3  C3  BNZ d   1      -0.299   2.347  -0.788  0.00  0.00     0.000 A 
ATOM      4  C4  BNZ d   1      -0.276   1.062  -0.380  0.00  0.00     0.000 A 
ATOM      5  C5  BNZ d   1      -0.958   0.677   0.757  0.00  0.00     0.000 A 
ATOM      6  C6  BNZ d   1      -1.674   1.607   1.476  0.00  0.00     0.000 A 
ENDROOT
TORSDOF 0
ENDMDL
