MODEL 1
REMARK minimizedAffinity -0.110853665
REMARK minimizedRMSD -1
REMARK  1 active torsions:
REMARK  status: ('A' for Active; 'I' for Inactive)
REMARK    1  A    between atoms: C1_2  and  C2_3 
ROOT
ATOM      1  C2  UNL d   1       2.212   0.895  -1.045  0.00  0.00    -0.073 A 
ATOM      2  C3  UNL d   1       2.743   0.990   0.246  0.00  0.00    -0.002 A 
ATOM      3  C4  UNL d   1       2.039   0.480   1.337  0.00  0.00     0.004 A 
ATOM      4  C5  UNL d   1       0.802  -0.136   1.148  0.00  0.00    -0.004 A 
ATOM      5  C6  UNL d   1       0.260  -0.251  -0.136  0.00  0.00    -0.075 A 
ATOM      6  C7  UNL d   1      -1.071  -0.908  -0.356  0.00  0.00     0.076 C 
ATOM      7  C8  UNL d   1       0.972   0.266  -1.226  0.00  0.00     0.001 A 
ENDROOT
BRANCH   1   8
ATOM      8  C1  UNL d   1       2.972   1.438  -2.228  0.00  0.00     0.053 C 
ATOM      9  C   UNL d   1       2.145   1.403  -3.503  0.00  0.00     0.018 C 
ENDBRANCH   1   8
TORSDOF 1
ENDMDL
