MODEL 1
REMARK minimizedAffinity -4.87615299
REMARK minimizedRMSD -1
REMARK  1 active torsions:
REMARK  status: ('A' for Active; 'I' for Inactive)
REMARK    1  A    between atoms: C1_2  and  C2_3 
ROOT
ATOM      1  C2  UNL d   1      -1.881  -0.368   0.417  0.00  0.00    -0.073 A 
ATOM      2  C3  UNL d   1      -0.739  -0.957  -0.138  0.00  0.00    -0.002 A 
ATOM      3  C4  UNL d   1       0.530  -0.616   0.332  0.00  0.00     0.004 A 
ATOM      4  C5  UNL d   1       0.670   0.311   1.365  0.00  0.00    -0.004 A 
ATOM      5  C6  UNL d   1      -0.460   0.902   1.940  0.00  0.00    -0.075 A 
ATOM      6  C7  UNL d   1      -0.326   1.903   3.051  0.00  0.00     0.076 C 
ATOM      7  C8  UNL d   1      -1.730   0.556   1.461  0.00  0.00     0.001 A 
ENDROOT
BRANCH   1   8
ATOM      8  C1  UNL d   1      -3.253  -0.737  -0.084  0.00  0.00     0.053 C 
ATOM      9  C   UNL d   1      -3.270  -2.108  -0.743  0.00  0.00     0.018 C 
ENDBRANCH   1   8
TORSDOF 1
ENDMDL
