MODEL 1
REMARK minimizedAffinity -0.136457637
REMARK minimizedRMSD -1
REMARK  1 active torsions:
REMARK  status: ('A' for Active; 'I' for Inactive)
REMARK    1  A    between atoms: C1_2  and  C2_3 
ROOT
ATOM      1  C2  UNL d   1      -0.967  -1.190  -0.570  0.00  0.00    -0.073 A 
ATOM      2  C3  UNL d   1      -2.342  -0.934  -0.518  0.00  0.00    -0.002 A 
ATOM      3  C4  UNL d   1      -3.257  -1.921  -0.884  0.00  0.00     0.004 A 
ATOM      4  C5  UNL d   1      -2.809  -3.175  -1.299  0.00  0.00    -0.004 A 
ATOM      5  C6  UNL d   1      -1.439  -3.454  -1.346  0.00  0.00    -0.075 A 
ATOM      6  C7  UNL d   1      -0.941  -4.798  -1.792  0.00  0.00     0.076 C 
ATOM      7  C8  UNL d   1      -0.526  -2.457  -0.980  0.00  0.00     0.001 A 
ENDROOT
BRANCH   1   8
ATOM      8  C1  UNL d   1       0.025  -0.129  -0.170  0.00  0.00     0.053 C 
ATOM      9  C   UNL d   1       1.130  -0.686   0.713  0.00  0.00     0.018 C 
ENDBRANCH   1   8
TORSDOF 1
ENDMDL
