MODEL 1
REMARK minimizedAffinity -3.08629537
REMARK minimizedRMSD -1
REMARK  1 active torsions:
REMARK  status: ('A' for Active; 'I' for Inactive)
REMARK    1  A    between atoms: C1_2  and  C2_3 
ROOT
ATOM      1  C2  UNL d   1       0.923   0.047  -2.560  0.00  0.00    -0.073 A 
ATOM      2  C3  UNL d   1       1.990   0.713  -3.173  0.00  0.00    -0.002 A 
ATOM      3  C4  UNL d   1       1.898   1.115  -4.506  0.00  0.00     0.004 A 
ATOM      4  C5  UNL d   1       0.738   0.862  -5.237  0.00  0.00    -0.004 A 
ATOM      5  C6  UNL d   1      -0.344   0.208  -4.639  0.00  0.00    -0.075 A 
ATOM      6  C7  UNL d   1      -1.599  -0.074  -5.412  0.00  0.00     0.076 C 
ATOM      7  C8  UNL d   1      -0.243  -0.195  -3.301  0.00  0.00     0.001 A 
ENDROOT
BRANCH   1   8
ATOM      8  C1  UNL d   1       1.015  -0.383  -1.119  0.00  0.00     0.053 C 
ATOM      9  C   UNL d   1      -0.218   0.017  -0.324  0.00  0.00     0.018 C 
ENDBRANCH   1   8
TORSDOF 1
ENDMDL
