MODEL 1
REMARK minimizedAffinity -0.804799855
REMARK minimizedRMSD -1
REMARK  0 active torsions:
REMARK  status: ('A' for Active; 'I' for Inactive)
ROOT
ATOM      1  C   UNL d   1       5.998   1.316   4.283  0.00  0.00     0.020 A 
ATOM      2  C1  UNL d   1       5.998   0.926   5.622  0.00  0.00     0.020 A 
ATOM      3  C2  UNL d   1       5.999  -0.431   5.953  0.00  0.00     0.034 A 
ATOM      4  C3  UNL d   1       5.999  -1.402   4.945  0.00  0.00     0.017 A 
ATOM      5  C4  UNL d   1       5.999  -1.009   3.602  0.00  0.00     0.017 A 
ATOM      6  C5  UNL d   1       5.999   0.351   3.276  0.00  0.00     0.034 A 
ATOM      7 Cl   UNL d   1       5.999  -2.148   2.302  0.00  0.00    -0.070 Cl
ATOM      8 Cl1  UNL d   1       6.000  -3.061   5.427  0.00  0.00    -0.070 Cl
ENDROOT
TORSDOF 0
ENDMDL
