MODEL 1
REMARK minimizedAffinity 0.127457187
REMARK minimizedRMSD -1
REMARK  0 active torsions:
REMARK  status: ('A' for Active; 'I' for Inactive)
ROOT
ATOM      1  C   UNL d   1       5.982   0.248   6.000  0.00  0.00     0.020 A 
ATOM      2  C1  UNL d   1       5.977  -0.935   5.262  0.00  0.00     0.020 A 
ATOM      3  C2  UNL d   1       5.979  -0.888   3.866  0.00  0.00     0.034 A 
ATOM      4  C3  UNL d   1       5.985   0.345   3.204  0.00  0.00     0.017 A 
ATOM      5  C4  UNL d   1       5.989   1.533   3.945  0.00  0.00     0.017 A 
ATOM      6  C5  UNL d   1       5.988   1.479   5.343  0.00  0.00     0.034 A 
ATOM      7 Cl   UNL d   1       5.997   3.091   3.199  0.00  0.00    -0.070 Cl
ATOM      8 Cl1  UNL d   1       5.988   0.329   1.476  0.00  0.00    -0.070 Cl
ENDROOT
TORSDOF 0
ENDMDL
