MODEL 1
REMARK minimizedAffinity 14.763443
REMARK minimizedRMSD -1
REMARK  0 active torsions:
REMARK  status: ('A' for Active; 'I' for Inactive)
ROOT
ATOM      1  C   UNL d   1      -0.654   4.089   1.330  0.00  0.00     0.020 A 
ATOM      2  C1  UNL d   1      -0.897   3.922   2.693  0.00  0.00     0.020 A 
ATOM      3  C2  UNL d   1      -1.448   2.727   3.162  0.00  0.00     0.034 A 
ATOM      4  C3  UNL d   1      -1.757   1.696   2.269  0.00  0.00     0.017 A 
ATOM      5  C4  UNL d   1      -1.513   1.865   0.901  0.00  0.00     0.017 A 
ATOM      6  C5  UNL d   1      -0.961   3.063   0.436  0.00  0.00     0.034 A 
ATOM      7 Cl   UNL d   1      -1.869   0.637  -0.263  0.00  0.00    -0.070 Cl
ATOM      8 Cl1  UNL d   1      -2.436   0.246   2.919  0.00  0.00    -0.070 Cl
ENDROOT
TORSDOF 0
ENDMDL
