MODEL 1
REMARK minimizedAffinity 6.41188526
REMARK minimizedRMSD -1
REMARK  0 active torsions:
REMARK  status: ('A' for Active; 'I' for Inactive)
ROOT
ATOM      1  C   UNL d   1       5.341  -0.862   2.419  0.00  0.00     0.020 A 
ATOM      2  C1  UNL d   1       5.335  -1.378   3.714  0.00  0.00     0.020 A 
ATOM      3  C2  UNL d   1       5.535  -0.530   4.805  0.00  0.00     0.034 A 
ATOM      4  C3  UNL d   1       5.742   0.840   4.603  0.00  0.00     0.017 A 
ATOM      5  C4  UNL d   1       5.748   1.357   3.302  0.00  0.00     0.017 A 
ATOM      6  C5  UNL d   1       5.548   0.503   2.214  0.00  0.00     0.034 A 
ATOM      7 Cl   UNL d   1       5.998   3.035   2.973  0.00  0.00    -0.070 Cl
ATOM      8 Cl1  UNL d   1       5.983   1.831   5.998  0.00  0.00    -0.070 Cl
ENDROOT
TORSDOF 0
ENDMDL
