MODEL 1
REMARK minimizedAffinity 12.2346525
REMARK minimizedRMSD -1
REMARK  0 active torsions:
REMARK  status: ('A' for Active; 'I' for Inactive)
ROOT
ATOM      1  C   UNL d   1       2.831   2.207  -6.000  0.00  0.00     0.020 A 
ATOM      2  C1  UNL d   1       2.580   3.541  -5.679  0.00  0.00     0.020 A 
ATOM      3  C2  UNL d   1       3.390   4.200  -4.751  0.00  0.00     0.034 A 
ATOM      4  C3  UNL d   1       4.454   3.526  -4.141  0.00  0.00     0.017 A 
ATOM      5  C4  UNL d   1       4.705   2.187  -4.464  0.00  0.00     0.017 A 
ATOM      6  C5  UNL d   1       3.891   1.532  -5.394  0.00  0.00     0.034 A 
ATOM      7 Cl   UNL d   1       5.999   1.290  -3.753  0.00  0.00    -0.070 Cl
ATOM      8 Cl1  UNL d   1       5.414   4.403  -3.003  0.00  0.00    -0.070 Cl
ENDROOT
TORSDOF 0
ENDMDL
