MODEL 1
REMARK minimizedAffinity -0.0148286223
REMARK minimizedRMSD -1
REMARK  0 active torsions:
REMARK  status: ('A' for Active; 'I' for Inactive)
ROOT
ATOM      1  C   UNL d   1       5.962   0.892   5.305  0.00  0.00     0.020 A 
ATOM      2  C1  UNL d   1       5.964   1.063   3.921  0.00  0.00     0.020 A 
ATOM      3  C2  UNL d   1       5.975  -0.052   3.080  0.00  0.00     0.034 A 
ATOM      4  C3  UNL d   1       5.986  -1.342   3.622  0.00  0.00     0.017 A 
ATOM      5  C4  UNL d   1       5.984  -1.513   5.011  0.00  0.00     0.017 A 
ATOM      6  C5  UNL d   1       5.973  -0.393   5.849  0.00  0.00     0.034 A 
ATOM      7 Cl   UNL d   1       5.997  -3.074   5.753  0.00  0.00    -0.070 Cl
ATOM      8 Cl1  UNL d   1       6.000  -2.675   2.523  0.00  0.00    -0.070 Cl
ENDROOT
TORSDOF 0
ENDMDL
