MODEL 1
REMARK minimizedAffinity 6.47644281
REMARK minimizedRMSD -1
REMARK  0 active torsions:
REMARK  status: ('A' for Active; 'I' for Inactive)
ROOT
ATOM      1  C   UNL d   1       3.931   1.813  -2.504  0.00  0.00     0.020 A 
ATOM      2  C1  UNL d   1       3.792   1.152  -1.284  0.00  0.00     0.020 A 
ATOM      3  C2  UNL d   1       3.680   1.885  -0.101  0.00  0.00     0.034 A 
ATOM      4  C3  UNL d   1       3.706   3.284  -0.135  0.00  0.00     0.017 A 
ATOM      5  C4  UNL d   1       3.845   3.947  -1.360  0.00  0.00     0.017 A 
ATOM      6  C5  UNL d   1       3.957   3.207  -2.541  0.00  0.00     0.034 A 
ATOM      7 Cl   UNL d   1       3.886   5.671  -1.482  0.00  0.00    -0.070 Cl
ATOM      8 Cl1  UNL d   1       3.561   4.127   1.366  0.00  0.00    -0.070 Cl
ENDROOT
TORSDOF 0
ENDMDL
