MODEL 1
REMARK minimizedAffinity -2.96879983
REMARK minimizedRMSD -1
REMARK  0 active torsions:
REMARK  status: ('A' for Active; 'I' for Inactive)
ROOT
ATOM      1  C   UNL d   1       5.617   2.480   4.524  0.00  0.00     0.020 A 
ATOM      2  C1  UNL d   1       5.887   1.970   5.793  0.00  0.00     0.020 A 
ATOM      3  C2  UNL d   1       6.000   0.591   5.983  0.00  0.00     0.034 A 
ATOM      4  C3  UNL d   1       5.843  -0.283   4.901  0.00  0.00     0.017 A 
ATOM      5  C4  UNL d   1       5.572   0.230   3.627  0.00  0.00     0.017 A 
ATOM      6  C5  UNL d   1       5.460   1.612   3.443  0.00  0.00     0.034 A 
ATOM      7 Cl   UNL d   1       5.366  -0.786   2.244  0.00  0.00    -0.070 Cl
ATOM      8 Cl1  UNL d   1       5.996  -1.976   5.207  0.00  0.00    -0.070 Cl
ENDROOT
TORSDOF 0
ENDMDL
