MODEL 1
REMARK minimizedAffinity -2.06871438
REMARK minimizedRMSD -1
REMARK  0 active torsions:
REMARK  status: ('A' for Active; 'I' for Inactive)
ROOT
ATOM      1  C   UNL d   1       6.000  -0.193   6.000  0.00  0.00     0.020 A 
ATOM      2  C1  UNL d   1       5.694  -1.212   5.098  0.00  0.00     0.020 A 
ATOM      3  C2  UNL d   1       5.130  -0.901   3.859  0.00  0.00     0.034 A 
ATOM      4  C3  UNL d   1       4.869   0.431   3.519  0.00  0.00     0.017 A 
ATOM      5  C4  UNL d   1       5.176   1.453   4.424  0.00  0.00     0.017 A 
ATOM      6  C5  UNL d   1       5.742   1.136   5.663  0.00  0.00     0.034 A 
ATOM      7 Cl   UNL d   1       4.884   3.120   4.075  0.00  0.00    -0.070 Cl
ATOM      8 Cl1  UNL d   1       4.170   0.742   1.969  0.00  0.00    -0.070 Cl
ENDROOT
TORSDOF 0
ENDMDL
