MODEL 1
REMARK minimizedAffinity 1.16012239
REMARK minimizedRMSD -1
REMARK  0 active torsions:
REMARK  status: ('A' for Active; 'I' for Inactive)
ROOT
ATOM      1  C   UNL d   1       5.972   3.493   4.307  0.00  0.00     0.020 A 
ATOM      2  C1  UNL d   1       5.971   3.097   5.643  0.00  0.00     0.020 A 
ATOM      3  C2  UNL d   1       5.978   1.739   5.969  0.00  0.00     0.034 A 
ATOM      4  C3  UNL d   1       5.987   0.773   4.956  0.00  0.00     0.017 A 
ATOM      5  C4  UNL d   1       5.988   1.172   3.615  0.00  0.00     0.017 A 
ATOM      6  C5  UNL d   1       5.981   2.533   3.295  0.00  0.00     0.034 A 
ATOM      7 Cl   UNL d   1       5.999   0.037   2.311  0.00  0.00    -0.070 Cl
ATOM      8 Cl1  UNL d   1       5.996  -0.889   5.432  0.00  0.00    -0.070 Cl
ENDROOT
TORSDOF 0
ENDMDL
