MODEL 1
REMARK minimizedAffinity 0.349075824
REMARK minimizedRMSD -1
REMARK  0 active torsions:
REMARK  status: ('A' for Active; 'I' for Inactive)
ROOT
ATOM      1  C   UNL d   1       5.858   2.994   4.142  0.00  0.00     0.020 A 
ATOM      2  C1  UNL d   1       5.524   2.521   5.410  0.00  0.00     0.020 A 
ATOM      3  C2  UNL d   1       5.331   1.153   5.616  0.00  0.00     0.034 A 
ATOM      4  C3  UNL d   1       5.472   0.254   4.552  0.00  0.00     0.017 A 
ATOM      5  C4  UNL d   1       5.808   0.730   3.280  0.00  0.00     0.017 A 
ATOM      6  C5  UNL d   1       6.000   2.101   3.079  0.00  0.00     0.034 A 
ATOM      7 Cl   UNL d   1       6.000  -0.317   1.919  0.00  0.00    -0.070 Cl
ATOM      8 Cl1  UNL d   1       5.219  -1.423   4.880  0.00  0.00    -0.070 Cl
ENDROOT
TORSDOF 0
ENDMDL
