MODEL 1
REMARK minimizedAffinity -3.16479564
REMARK minimizedRMSD -1
REMARK  0 active torsions:
REMARK  status: ('A' for Active; 'I' for Inactive)
ROOT
ATOM      1  C   UNL d   1       5.592   1.484   5.988  0.00  0.00     0.020 A 
ATOM      2  C1  UNL d   1       5.882   2.240   4.853  0.00  0.00     0.020 A 
ATOM      3  C2  UNL d   1       5.998   1.615   3.609  0.00  0.00     0.034 A 
ATOM      4  C3  UNL d   1       5.824   0.231   3.498  0.00  0.00     0.017 A 
ATOM      5  C4  UNL d   1       5.533  -0.527   4.638  0.00  0.00     0.017 A 
ATOM      6  C5  UNL d   1       5.418   0.103   5.881  0.00  0.00     0.034 A 
ATOM      7 Cl   UNL d   1       5.305  -2.239   4.580  0.00  0.00    -0.070 Cl
ATOM      8 Cl1  UNL d   1       5.981  -0.475   1.929  0.00  0.00    -0.070 Cl
ENDROOT
TORSDOF 0
ENDMDL
