MODEL 1
REMARK minimizedAffinity -3.12342978
REMARK minimizedRMSD -1
REMARK  0 active torsions:
REMARK  status: ('A' for Active; 'I' for Inactive)
ROOT
ATOM      1  C   UNL d   1       5.632  -0.004   4.237  0.00  0.00     0.020 A 
ATOM      2  C1  UNL d   1       5.628   0.429   5.562  0.00  0.00     0.020 A 
ATOM      3  C2  UNL d   1       5.740   1.790   5.852  0.00  0.00     0.034 A 
ATOM      4  C3  UNL d   1       5.856   2.723   4.815  0.00  0.00     0.017 A 
ATOM      5  C4  UNL d   1       5.860   2.288   3.485  0.00  0.00     0.017 A 
ATOM      6  C5  UNL d   1       5.747   0.923   3.200  0.00  0.00     0.034 A 
ATOM      7 Cl   UNL d   1       5.999   3.379   2.152  0.00  0.00    -0.070 Cl
ATOM      8 Cl1  UNL d   1       5.990   4.391   5.247  0.00  0.00    -0.070 Cl
ENDROOT
TORSDOF 0
ENDMDL
