MODEL 1
REMARK minimizedAffinity -0.927400529
REMARK minimizedRMSD -1
REMARK  0 active torsions:
REMARK  status: ('A' for Active; 'I' for Inactive)
ROOT
ATOM      1  C   UNL d   1       5.970   4.186   4.049  0.00  0.00     0.020 A 
ATOM      2  C1  UNL d   1       5.963   4.036   5.435  0.00  0.00     0.020 A 
ATOM      3  C2  UNL d   1       5.967   2.759   5.999  0.00  0.00     0.034 A 
ATOM      4  C3  UNL d   1       5.978   1.626   5.177  0.00  0.00     0.017 A 
ATOM      5  C4  UNL d   1       5.986   1.778   3.786  0.00  0.00     0.017 A 
ATOM      6  C5  UNL d   1       5.982   3.059   3.226  0.00  0.00     0.034 A 
ATOM      7 Cl   UNL d   1       6.000   0.428   2.707  0.00  0.00    -0.070 Cl
ATOM      8 Cl1  UNL d   1       5.983   0.077   5.943  0.00  0.00    -0.070 Cl
ENDROOT
TORSDOF 0
ENDMDL
