MODEL 1
REMARK minimizedAffinity 0.584210813
REMARK minimizedRMSD -1
REMARK  0 active torsions:
REMARK  status: ('A' for Active; 'I' for Inactive)
ROOT
ATOM      1  C   UNL d   1       5.988   1.156   3.630  0.00  0.00     0.020 A 
ATOM      2  C1  UNL d   1       5.986   1.318   5.015  0.00  0.00     0.020 A 
ATOM      3  C2  UNL d   1       5.986   2.601   5.567  0.00  0.00     0.034 A 
ATOM      4  C3  UNL d   1       5.989   3.726   4.734  0.00  0.00     0.017 A 
ATOM      5  C4  UNL d   1       5.991   3.561   3.344  0.00  0.00     0.017 A 
ATOM      6  C5  UNL d   1       5.991   2.275   2.796  0.00  0.00     0.034 A 
ATOM      7 Cl   UNL d   1       5.993   4.901   2.252  0.00  0.00    -0.070 Cl
ATOM      8 Cl1  UNL d   1       5.988   5.282   5.485  0.00  0.00    -0.070 Cl
ENDROOT
TORSDOF 0
ENDMDL
