MODEL 1
REMARK minimizedAffinity 1.44742823
REMARK minimizedRMSD -1
REMARK  1 active torsions:
REMARK  status: ('A' for Active; 'I' for Inactive)
REMARK    1  A    between atoms: C3_4  and  O_7 
ROOT
ATOM      1  C   UNL d   1      -1.265  -1.368  -4.111  0.00  0.00    -0.033 A 
ATOM      2  C1  UNL d   1      -1.248   0.011  -3.893  0.00  0.00     0.039 A 
ATOM      3  C2  UNL d   1      -0.860   0.519  -2.652  0.00  0.00    -0.080 A 
ATOM      4  C3  UNL d   1      -0.490  -0.362  -1.639  0.00  0.00     0.150 A 
ATOM      5  C4  UNL d   1      -0.501  -1.737  -1.850  0.00  0.00    -0.007 A 
ATOM      6  C5  UNL d   1      -0.890  -2.242  -3.090  0.00  0.00     0.039 A 
ENDROOT
BRANCH   4   7
ATOM      7  O   UNL d   1      -0.108   0.086  -0.409  0.00  0.00    -0.526 OA
ATOM      8  H5  UNL d   1      -0.177   1.055  -0.400  0.00  0.00     0.418 HD
ENDBRANCH   4   7
TORSDOF 1
ENDMDL
