MODEL 1
REMARK minimizedAffinity -2.31670451
REMARK minimizedRMSD -1
REMARK  1 active torsions:
REMARK  status: ('A' for Active; 'I' for Inactive)
REMARK    1  A    between atoms: C3_4  and  O_7 
ROOT
ATOM      1  C   UNL d   1      -3.424   1.385   2.334  0.00  0.00    -0.033 A 
ATOM      2  C1  UNL d   1      -4.779   1.633   2.106  0.00  0.00     0.039 A 
ATOM      3  C2  UNL d   1      -5.496   0.837   1.210  0.00  0.00    -0.080 A 
ATOM      4  C3  UNL d   1      -4.847  -0.202   0.550  0.00  0.00     0.150 A 
ATOM      5  C4  UNL d   1      -3.498  -0.457   0.775  0.00  0.00    -0.007 A 
ATOM      6  C5  UNL d   1      -2.784   0.339   1.669  0.00  0.00     0.039 A 
ENDROOT
BRANCH   4   7
ATOM      7  O   UNL d   1      -5.503  -1.003  -0.337  0.00  0.00    -0.526 OA
ATOM      8  H5  UNL d   1      -6.420  -0.691  -0.413  0.00  0.00     0.418 HD
ENDBRANCH   4   7
TORSDOF 1
ENDMDL
