MODEL 1
REMARK minimizedAffinity 3.23155808
REMARK minimizedRMSD -1
REMARK  1 active torsions:
REMARK  status: ('A' for Active; 'I' for Inactive)
REMARK    1  A    between atoms: C3_4  and  O_7 
ROOT
ATOM      1  C   UNL d   1      -1.310   0.653  -1.821  0.00  0.00    -0.033 A 
ATOM      2  C1  UNL d   1      -0.755  -0.608  -1.598  0.00  0.00     0.039 A 
ATOM      3  C2  UNL d   1      -0.772  -1.570  -2.610  0.00  0.00    -0.080 A 
ATOM      4  C3  UNL d   1      -1.347  -1.258  -3.839  0.00  0.00     0.150 A 
ATOM      5  C4  UNL d   1      -1.899  -0.002  -4.070  0.00  0.00    -0.007 A 
ATOM      6  C5  UNL d   1      -1.881   0.957  -3.058  0.00  0.00     0.039 A 
ENDROOT
BRANCH   4   7
ATOM      7  O   UNL d   1      -1.392  -2.165  -4.856  0.00  0.00    -0.526 OA
ATOM      8  H5  UNL d   1      -1.000  -2.997  -4.543  0.00  0.00     0.418 HD
ENDBRANCH   4   7
TORSDOF 1
ENDMDL
