MODEL 1
REMARK minimizedAffinity -1.87266076
REMARK minimizedRMSD -1
REMARK  1 active torsions:
REMARK  status: ('A' for Active; 'I' for Inactive)
REMARK    1  A    between atoms: C3_4  and  O_7 
ROOT
ATOM      1  C   UNL d   1       2.533   0.949   1.388  0.00  0.00    -0.033 A 
ATOM      2  C1  UNL d   1       1.916   1.963   0.654  0.00  0.00     0.039 A 
ATOM      3  C2  UNL d   1       0.650   1.758   0.103  0.00  0.00    -0.080 A 
ATOM      4  C3  UNL d   1       0.012   0.535   0.294  0.00  0.00     0.150 A 
ATOM      5  C4  UNL d   1       0.620  -0.479   1.028  0.00  0.00    -0.007 A 
ATOM      6  C5  UNL d   1       1.885  -0.272   1.576  0.00  0.00     0.039 A 
ENDROOT
BRANCH   4   7
ATOM      7  O   UNL d   1      -1.223   0.286  -0.228  0.00  0.00    -0.526 OA
ATOM      8  H5  UNL d   1      -1.506   1.066  -0.734  0.00  0.00     0.418 HD
ENDBRANCH   4   7
TORSDOF 1
ENDMDL
