MODEL 1
REMARK minimizedAffinity 3.08789158
REMARK minimizedRMSD -1
REMARK  1 active torsions:
REMARK  status: ('A' for Active; 'I' for Inactive)
REMARK    1  A    between atoms: C3_4  and  O_7 
ROOT
ATOM      1  C   UNL d   1       0.322   0.373   0.772  0.00  0.00    -0.033 A 
ATOM      2  C1  UNL d   1       1.693   0.386   1.037  0.00  0.00     0.039 A 
ATOM      3  C2  UNL d   1       2.559  -0.405   0.281  0.00  0.00    -0.080 A 
ATOM      4  C3  UNL d   1       2.044  -1.203  -0.736  0.00  0.00     0.150 A 
ATOM      5  C4  UNL d   1       0.680  -1.218  -1.009  0.00  0.00    -0.007 A 
ATOM      6  C5  UNL d   1      -0.184  -0.428  -0.252  0.00  0.00     0.039 A 
ENDROOT
BRANCH   4   7
ATOM      7  O   UNL d   1       2.850  -1.996  -1.498  0.00  0.00    -0.526 OA
ATOM      8  H5  UNL d   1       3.763  -1.905  -1.177  0.00  0.00     0.418 HD
ENDBRANCH   4   7
TORSDOF 1
ENDMDL
