MODEL 1
REMARK minimizedAffinity -2.14342642
REMARK minimizedRMSD -1
REMARK  0 active torsions:
REMARK  status: ('A' for Active; 'I' for Inactive)
ROOT
ATOM      1  C   UNL d   1      -1.029   1.932  -2.500  0.00  0.00     0.078 C 
ATOM      2  C1  UNL d   1      -0.732   1.232  -1.208  0.00  0.00    -0.077 A 
ATOM      3  C2  UNL d   1       0.510   0.625  -0.986  0.00  0.00    -0.001 A 
ATOM      4  C3  UNL d   1       0.770  -0.031   0.218  0.00  0.00     0.003 A 
ATOM      5  C4  UNL d   1      -0.208  -0.089   1.209  0.00  0.00    -0.005 A 
ATOM      6  C5  UNL d   1      -1.448   0.510   0.996  0.00  0.00     0.003 A 
ATOM      7  C6  UNL d   1      -1.710   1.167  -0.207  0.00  0.00    -0.001 A 
ENDROOT
TORSDOF 0
ENDMDL
