MODEL 1
REMARK minimizedAffinity -1.96270561
REMARK minimizedRMSD -1
REMARK  0 active torsions:
REMARK  status: ('A' for Active; 'I' for Inactive)
ROOT
ATOM      1  C   UNL d   1       0.336  -0.748   2.500  0.00  0.00     0.078 C 
ATOM      2  C1  UNL d   1      -0.023  -0.429   1.079  0.00  0.00    -0.077 A 
ATOM      3  C2  UNL d   1      -1.233   0.202   0.765  0.00  0.00    -0.001 A 
ATOM      4  C3  UNL d   1      -1.558   0.485  -0.563  0.00  0.00     0.003 A 
ATOM      5  C4  UNL d   1      -0.678   0.139  -1.587  0.00  0.00    -0.005 A 
ATOM      6  C5  UNL d   1       0.527  -0.491  -1.284  0.00  0.00     0.003 A 
ATOM      7  C6  UNL d   1       0.854  -0.774   0.043  0.00  0.00    -0.001 A 
ENDROOT
TORSDOF 0
ENDMDL
