MODEL 1
REMARK minimizedAffinity -2.77326941
REMARK minimizedRMSD -1
REMARK  0 active torsions:
REMARK  status: ('A' for Active; 'I' for Inactive)
ROOT
ATOM      1  C   UNL d   1      -0.300   0.345  -0.886  0.00  0.00     0.078 C 
ATOM      2  C1  UNL d   1       0.064  -0.078   0.506  0.00  0.00    -0.077 A 
ATOM      3  C2  UNL d   1      -0.909  -0.175   1.508  0.00  0.00    -0.001 A 
ATOM      4  C3  UNL d   1      -0.554  -0.561   2.802  0.00  0.00     0.003 A 
ATOM      5  C4  UNL d   1       0.775  -0.853   3.105  0.00  0.00    -0.005 A 
ATOM      6  C5  UNL d   1       1.750  -0.757   2.114  0.00  0.00     0.003 A 
ATOM      7  C6  UNL d   1       1.397  -0.371   0.820  0.00  0.00    -0.001 A 
ENDROOT
TORSDOF 0
ENDMDL
