MODEL 1
REMARK minimizedAffinity -4.98225784
REMARK minimizedRMSD -1
REMARK  0 active torsions:
REMARK  status: ('A' for Active; 'I' for Inactive)
ROOT
ATOM      1  C   UNL d   1       0.155  -0.003  -1.510  0.00  0.00     0.078 C 
ATOM      2  C1  UNL d   1       0.212  -0.114  -0.016  0.00  0.00    -0.077 A 
ATOM      3  C2  UNL d   1      -0.952  -0.036   0.758  0.00  0.00    -0.001 A 
ATOM      4  C3  UNL d   1      -0.883  -0.131   2.149  0.00  0.00     0.003 A 
ATOM      5  C4  UNL d   1       0.348  -0.303   2.778  0.00  0.00    -0.005 A 
ATOM      6  C5  UNL d   1       1.512  -0.379   2.017  0.00  0.00     0.003 A 
ATOM      7  C6  UNL d   1       1.445  -0.284   0.626  0.00  0.00    -0.001 A 
ENDROOT
TORSDOF 0
ENDMDL
