MODEL 1
REMARK minimizedAffinity -4.49666739
REMARK minimizedRMSD -1
REMARK  0 active torsions:
REMARK  status: ('A' for Active; 'I' for Inactive)
ROOT
ATOM      1  C   UNL d   1       1.296  -1.084   2.809  0.00  0.00     0.078 C 
ATOM      2  C1  UNL d   1       0.940  -0.765   1.388  0.00  0.00    -0.077 A 
ATOM      3  C2  UNL d   1       1.818  -1.066   0.340  0.00  0.00    -0.001 A 
ATOM      4  C3  UNL d   1       1.477  -0.754  -0.978  0.00  0.00     0.003 A 
ATOM      5  C4  UNL d   1       0.259  -0.139  -1.259  0.00  0.00    -0.005 A 
ATOM      6  C5  UNL d   1      -0.620   0.166  -0.222  0.00  0.00     0.003 A 
ATOM      7  C6  UNL d   1      -0.282  -0.145   1.096  0.00  0.00    -0.001 A 
ENDROOT
TORSDOF 0
ENDMDL
