MODEL 1
REMARK minimizedAffinity -4.02558565
REMARK minimizedRMSD -1
REMARK  0 active torsions:
REMARK  status: ('A' for Active; 'I' for Inactive)
ROOT
ATOM      1  C   UNL d   1      -2.396  -0.175   1.292  0.00  0.00     0.078 C 
ATOM      2  C1  UNL d   1      -0.912  -0.089   1.099  0.00  0.00    -0.077 A 
ATOM      3  C2  UNL d   1      -0.044  -0.043   2.197  0.00  0.00    -0.001 A 
ATOM      4  C3  UNL d   1       1.336   0.047   2.003  0.00  0.00     0.003 A 
ATOM      5  C4  UNL d   1       1.859   0.093   0.712  0.00  0.00    -0.005 A 
ATOM      6  C5  UNL d   1       1.003   0.050  -0.386  0.00  0.00     0.003 A 
ATOM      7  C6  UNL d   1      -0.377  -0.040  -0.194  0.00  0.00    -0.001 A 
ENDROOT
TORSDOF 0
ENDMDL
