MODEL 1
REMARK minimizedAffinity -5.27706051
REMARK minimizedRMSD -1
REMARK  0 active torsions:
REMARK  status: ('A' for Active; 'I' for Inactive)
ROOT
ATOM      1  C   UNL d   1      -0.375  -0.004  -1.171  0.00  0.00     0.078 C 
ATOM      2  C1  UNL d   1       0.100  -0.192   0.239  0.00  0.00    -0.077 A 
ATOM      3  C2  UNL d   1       1.453  -0.416   0.521  0.00  0.00    -0.001 A 
ATOM      4  C3  UNL d   1       1.879  -0.599   1.837  0.00  0.00     0.003 A 
ATOM      5  C4  UNL d   1       0.958  -0.561   2.882  0.00  0.00    -0.005 A 
ATOM      6  C5  UNL d   1      -0.391  -0.341   2.611  0.00  0.00     0.003 A 
ATOM      7  C6  UNL d   1      -0.819  -0.158   1.296  0.00  0.00    -0.001 A 
ENDROOT
TORSDOF 0
ENDMDL
