MODEL 1
REMARK minimizedAffinity -2.89541221
REMARK minimizedRMSD -1
REMARK  0 active torsions:
REMARK  status: ('A' for Active; 'I' for Inactive)
ROOT
ATOM      1  C2' OXE d   1       3.299  -1.167   1.184  0.00  0.00     0.078 C 
ATOM      2  C1' OXE d   1       0.800  -2.339   0.673  0.00  0.00     0.078 C 
ATOM      3  C1  OXE d   1       0.942  -0.856   0.439  0.00  0.00    -0.078 A 
ATOM      4  C2  OXE d   1       2.155  -0.283   0.736  0.00  0.00    -0.078 A 
ATOM      5  C3  OXE d   1       2.357   1.072   0.487  0.00  0.00     0.003 A 
ATOM      6  C4  OXE d   1       1.292   1.885   0.082  0.00  0.00    -0.002 A 
ATOM      7  C5  OXE d   1       0.037   1.328  -0.188  0.00  0.00    -0.002 A 
ATOM      8  C6  OXE d   1      -0.142  -0.045  -0.056  0.00  0.00     0.003 A 
ENDROOT
TORSDOF 0
ENDMDL
