MODEL 1
REMARK minimizedAffinity -2.3558898
REMARK minimizedRMSD -1
REMARK  0 active torsions:
REMARK  status: ('A' for Active; 'I' for Inactive)
ROOT
ATOM      1  C2' OXE d   1       2.396  -1.515   2.685  0.00  0.00     0.078 C 
ATOM      2  C1' OXE d   1      -0.041  -2.195   1.468  0.00  0.00     0.078 C 
ATOM      3  C1  OXE d   1       0.543  -0.839   1.163  0.00  0.00    -0.078 A 
ATOM      4  C2  OXE d   1       1.712  -0.496   1.799  0.00  0.00    -0.078 A 
ATOM      5  C3  OXE d   1       2.322   0.722   1.511  0.00  0.00     0.003 A 
ATOM      6  C4  OXE d   1       1.679   1.663   0.699  0.00  0.00    -0.002 A 
ATOM      7  C5  OXE d   1       0.468   1.349   0.072  0.00  0.00    -0.002 A 
ATOM      8  C6  OXE d   1      -0.091   0.090   0.260  0.00  0.00     0.003 A 
ENDROOT
TORSDOF 0
ENDMDL
