MODEL 1
REMARK minimizedAffinity -3.0802505
REMARK minimizedRMSD -1
REMARK  0 active torsions:
REMARK  status: ('A' for Active; 'I' for Inactive)
ROOT
ATOM      1  C2' OXE d   1      -1.394   0.424   0.137  0.00  0.00     0.078 C 
ATOM      2  C1' OXE d   1       0.341  -1.380   1.408  0.00  0.00     0.078 C 
ATOM      3  C1  OXE d   1       0.903  -0.049   0.977  0.00  0.00    -0.078 A 
ATOM      4  C2  OXE d   1       0.059   0.809   0.314  0.00  0.00    -0.078 A 
ATOM      5  C3  OXE d   1       0.511   2.072  -0.057  0.00  0.00     0.003 A 
ATOM      6  C4  OXE d   1       1.859   2.417   0.102  0.00  0.00    -0.002 A 
ATOM      7  C5  OXE d   1       2.746   1.543   0.739  0.00  0.00    -0.002 A 
ATOM      8  C6  OXE d   1       2.275   0.326   1.219  0.00  0.00     0.003 A 
ENDROOT
TORSDOF 0
ENDMDL
