MODEL 1
REMARK minimizedAffinity -3.87837076
REMARK minimizedRMSD -1
REMARK  0 active torsions:
REMARK  status: ('A' for Active; 'I' for Inactive)
ROOT
ATOM      1  C2' OXE d   1      -1.204   0.092  -0.400  0.00  0.00     0.078 C 
ATOM      2  C1' OXE d   1       0.087  -1.936   1.047  0.00  0.00     0.078 C 
ATOM      3  C1  OXE d   1       0.840  -0.651   0.814  0.00  0.00    -0.078 A 
ATOM      4  C2  OXE d   1       0.218   0.319   0.064  0.00  0.00    -0.078 A 
ATOM      5  C3  OXE d   1       0.846   1.545  -0.135  0.00  0.00     0.003 A 
ATOM      6  C4  OXE d   1       2.166   1.743   0.290  0.00  0.00    -0.002 A 
ATOM      7  C5  OXE d   1       2.832   0.753   1.021  0.00  0.00    -0.002 A 
ATOM      8  C6  OXE d   1       2.169  -0.430   1.327  0.00  0.00     0.003 A 
ENDROOT
TORSDOF 0
ENDMDL
