MODEL 1
REMARK minimizedAffinity 0.8977741
REMARK minimizedRMSD -1
REMARK  0 active torsions:
REMARK  status: ('A' for Active; 'I' for Inactive)
ROOT
ATOM      1  C2' OXE d   1      -1.812  -0.049  -1.305  0.00  0.00     0.078 C 
ATOM      2  C1' OXE d   1      -1.768  -1.437   1.134  0.00  0.00     0.078 C 
ATOM      3  C1  OXE d   1      -0.539  -0.652   0.749  0.00  0.00    -0.078 A 
ATOM      4  C2  OXE d   1      -0.551  -0.015  -0.468  0.00  0.00    -0.078 A 
ATOM      5  C3  OXE d   1       0.536   0.768  -0.848  0.00  0.00     0.003 A 
ATOM      6  C4  OXE d   1       1.701   0.786  -0.072  0.00  0.00    -0.002 A 
ATOM      7  C5  OXE d   1       1.750   0.111   1.152  0.00  0.00    -0.002 A 
ATOM      8  C6  OXE d   1       0.626  -0.577   1.597  0.00  0.00     0.003 A 
ENDROOT
TORSDOF 0
ENDMDL
