MODEL 1
REMARK minimizedAffinity -0.709282935
REMARK minimizedRMSD -1
REMARK  0 active torsions:
REMARK  status: ('A' for Active; 'I' for Inactive)
ROOT
ATOM      1  C2' OXE d   1       2.625   1.678   2.299  0.00  0.00     0.078 C 
ATOM      2  C1' OXE d   1       1.008   3.786   1.393  0.00  0.00     0.078 C 
ATOM      3  C1  OXE d   1       0.580   2.379   1.061  0.00  0.00    -0.078 A 
ATOM      4  C2  OXE d   1       1.402   1.355   1.468  0.00  0.00    -0.078 A 
ATOM      5  C3  OXE d   1       1.026   0.036   1.236  0.00  0.00     0.003 A 
ATOM      6  C4  OXE d   1      -0.102  -0.254   0.459  0.00  0.00    -0.002 A 
ATOM      7  C5  OXE d   1      -0.931   0.775   0.000  0.00  0.00    -0.002 A 
ATOM      8  C6  OXE d   1      -0.628   2.092   0.328  0.00  0.00     0.003 A 
ENDROOT
TORSDOF 0
ENDMDL
