MODEL 1
REMARK minimizedAffinity 2.89205098
REMARK minimizedRMSD -1
REMARK  0 active torsions:
REMARK  status: ('A' for Active; 'I' for Inactive)
ROOT
ATOM      1  C2' OXE d   1       2.345   1.824   2.810  0.00  0.00     0.078 C 
ATOM      2  C1' OXE d   1      -0.030   2.139   1.348  0.00  0.00     0.078 C 
ATOM      3  C1  OXE d   1       0.689   0.818   1.245  0.00  0.00    -0.078 A 
ATOM      4  C2  OXE d   1       1.875   0.688   1.927  0.00  0.00    -0.078 A 
ATOM      5  C3  OXE d   1       2.551  -0.528   1.909  0.00  0.00     0.003 A 
ATOM      6  C4  OXE d   1       2.114  -1.570   1.082  0.00  0.00    -0.002 A 
ATOM      7  C5  OXE d   1       0.930  -1.445   0.348  0.00  0.00    -0.002 A 
ATOM      8  C6  OXE d   1       0.184  -0.276   0.452  0.00  0.00     0.003 A 
ENDROOT
TORSDOF 0
ENDMDL
