MODEL 1
REMARK minimizedAffinity -5.51702309
REMARK minimizedRMSD -1
REMARK  0 active torsions:
REMARK  status: ('A' for Active; 'I' for Inactive)
ROOT
ATOM      1  C   UNL d   1      -0.521   0.426  -1.468  0.00  0.00     0.078 C 
ATOM      2  C1  UNL d   1      -0.041  -0.004  -0.114  0.00  0.00    -0.077 A 
ATOM      3  C2  UNL d   1      -0.905  -0.010   0.988  0.00  0.00    -0.001 A 
ATOM      4  C3  UNL d   1      -0.443  -0.404   2.245  0.00  0.00     0.003 A 
ATOM      5  C4  UNL d   1       0.885  -0.792   2.412  0.00  0.00    -0.005 A 
ATOM      6  C5  UNL d   1       1.753  -0.787   1.321  0.00  0.00     0.003 A 
ATOM      7  C6  UNL d   1       1.292  -0.394   0.064  0.00  0.00    -0.001 A 
ENDROOT
TORSDOF 0
ENDMDL
