MODEL 1
REMARK minimizedAffinity -4.00213099
REMARK minimizedRMSD -1
REMARK  0 active torsions:
REMARK  status: ('A' for Active; 'I' for Inactive)
ROOT
ATOM      1  C   UNL d   1       0.361  -0.716   3.332  0.00  0.00     0.078 C 
ATOM      2  C1  UNL d   1       0.159  -0.487   1.863  0.00  0.00    -0.077 A 
ATOM      3  C2  UNL d   1      -1.000   0.134   1.383  0.00  0.00    -0.001 A 
ATOM      4  C3  UNL d   1      -1.179   0.331   0.012  0.00  0.00     0.003 A 
ATOM      5  C4  UNL d   1      -0.203  -0.090  -0.888  0.00  0.00    -0.005 A 
ATOM      6  C5  UNL d   1       0.953  -0.711  -0.420  0.00  0.00     0.003 A 
ATOM      7  C6  UNL d   1       1.134  -0.910   0.950  0.00  0.00    -0.001 A 
ENDROOT
TORSDOF 0
ENDMDL
