MODEL 1
REMARK minimizedAffinity -4.58643389
REMARK minimizedRMSD -1
REMARK  0 active torsions:
REMARK  status: ('A' for Active; 'I' for Inactive)
ROOT
ATOM      1  C   UNL d   1      -0.741   0.423  -1.595  0.00  0.00     0.078 C 
ATOM      2  C1  UNL d   1      -0.321   0.020  -0.214  0.00  0.00    -0.077 A 
ATOM      3  C2  UNL d   1      -1.247  -0.038   0.834  0.00  0.00    -0.001 A 
ATOM      4  C3  UNL d   1      -0.840  -0.406   2.118  0.00  0.00     0.003 A 
ATOM      5  C4  UNL d   1       0.496  -0.718   2.365  0.00  0.00    -0.005 A 
ATOM      6  C5  UNL d   1       1.426  -0.660   1.329  0.00  0.00     0.003 A 
ATOM      7  C6  UNL d   1       1.020  -0.293   0.045  0.00  0.00    -0.001 A 
ENDROOT
TORSDOF 0
ENDMDL
