MODEL 1
REMARK minimizedAffinity -3.62897825
REMARK minimizedRMSD -1
REMARK  0 active torsions:
REMARK  status: ('A' for Active; 'I' for Inactive)
ROOT
ATOM      1  C   UNL d   1       1.076  -0.367   2.148  0.00  0.00     0.078 C 
ATOM      2  C1  UNL d   1       0.610  -0.260   0.726  0.00  0.00    -0.077 A 
ATOM      3  C2  UNL d   1      -0.414   0.625   0.368  0.00  0.00    -0.001 A 
ATOM      4  C3  UNL d   1      -0.845   0.708  -0.957  0.00  0.00     0.003 A 
ATOM      5  C4  UNL d   1      -0.258  -0.093  -1.934  0.00  0.00    -0.005 A 
ATOM      6  C5  UNL d   1       0.761  -0.978  -1.587  0.00  0.00     0.003 A 
ATOM      7  C6  UNL d   1       1.193  -1.062  -0.263  0.00  0.00    -0.001 A 
ENDROOT
TORSDOF 0
ENDMDL
