MODEL 1
REMARK minimizedAffinity -4.84931993
REMARK minimizedRMSD -1
REMARK  0 active torsions:
REMARK  status: ('A' for Active; 'I' for Inactive)
ROOT
ATOM      1  C   UNL d   1      -0.512   0.491  -1.126  0.00  0.00     0.078 C 
ATOM      2  C1  UNL d   1       0.264  -0.317  -0.129  0.00  0.00    -0.077 A 
ATOM      3  C2  UNL d   1      -0.122  -0.367   1.216  0.00  0.00    -0.001 A 
ATOM      4  C3  UNL d   1       0.616  -1.115   2.135  0.00  0.00     0.003 A 
ATOM      5  C4  UNL d   1       1.745  -1.818   1.719  0.00  0.00    -0.005 A 
ATOM      6  C5  UNL d   1       2.138  -1.772   0.384  0.00  0.00     0.003 A 
ATOM      7  C6  UNL d   1       1.402  -1.025  -0.537  0.00  0.00    -0.001 A 
ENDROOT
TORSDOF 0
ENDMDL
