MODEL 1
REMARK minimizedAffinity -5.46711493
REMARK minimizedRMSD -1
REMARK  0 active torsions:
REMARK  status: ('A' for Active; 'I' for Inactive)
ROOT
ATOM      1  C   UNL d   1      -0.461  -0.148  -0.697  0.00  0.00     0.078 C 
ATOM      2  C1  UNL d   1       0.421  -0.718   0.373  0.00  0.00    -0.077 A 
ATOM      3  C2  UNL d   1       1.668  -1.273   0.060  0.00  0.00    -0.001 A 
ATOM      4  C3  UNL d   1       2.475  -1.809   1.065  0.00  0.00     0.003 A 
ATOM      5  C4  UNL d   1       2.043  -1.796   2.390  0.00  0.00    -0.005 A 
ATOM      6  C5  UNL d   1       0.803  -1.248   2.711  0.00  0.00     0.003 A 
ATOM      7  C6  UNL d   1      -0.005  -0.712   1.707  0.00  0.00    -0.001 A 
ENDROOT
TORSDOF 0
ENDMDL
