MODEL 1
REMARK minimizedAffinity -2.87042999
REMARK minimizedRMSD -1
REMARK  0 active torsions:
REMARK  status: ('A' for Active; 'I' for Inactive)
ROOT
ATOM      1  C   UNL d   1      -0.029  -1.546   2.672  0.00  0.00     0.078 C 
ATOM      2  C1  UNL d   1      -0.174  -0.661   1.470  0.00  0.00    -0.077 A 
ATOM      3  C2  UNL d   1       0.605  -0.866   0.325  0.00  0.00    -0.001 A 
ATOM      4  C3  UNL d   1       0.466  -0.028  -0.783  0.00  0.00     0.003 A 
ATOM      5  C4  UNL d   1      -0.451   1.021  -0.756  0.00  0.00    -0.005 A 
ATOM      6  C5  UNL d   1      -1.229   1.234   0.380  0.00  0.00     0.003 A 
ATOM      7  C6  UNL d   1      -1.091   0.398   1.489  0.00  0.00    -0.001 A 
ENDROOT
TORSDOF 0
ENDMDL
