MODEL 1
REMARK minimizedAffinity -3.86470509
REMARK minimizedRMSD -1
REMARK  0 active torsions:
REMARK  status: ('A' for Active; 'I' for Inactive)
ROOT
ATOM      1  C   UNL d   1      -0.934   1.491  -2.182  0.00  0.00     0.078 C 
ATOM      2  C1  UNL d   1      -0.538   0.675  -0.988  0.00  0.00    -0.077 A 
ATOM      3  C2  UNL d   1      -1.460   0.387   0.026  0.00  0.00    -0.001 A 
ATOM      4  C3  UNL d   1      -1.075  -0.367   1.136  0.00  0.00     0.003 A 
ATOM      5  C4  UNL d   1       0.232  -0.837   1.244  0.00  0.00    -0.005 A 
ATOM      6  C5  UNL d   1       1.157  -0.554   0.241  0.00  0.00     0.003 A 
ATOM      7  C6  UNL d   1       0.774   0.199  -0.870  0.00  0.00    -0.001 A 
ENDROOT
TORSDOF 0
ENDMDL
