MODEL 1
REMARK minimizedAffinity -4.91547108
REMARK minimizedRMSD -1
REMARK  0 active torsions:
REMARK  status: ('A' for Active; 'I' for Inactive)
ROOT
ATOM      1  C   UNL d   1      -0.469   0.567  -1.336  0.00  0.00     0.078 C 
ATOM      2  C1  UNL d   1      -0.142   0.059   0.037  0.00  0.00    -0.077 A 
ATOM      3  C2  UNL d   1       1.145  -0.392   0.352  0.00  0.00    -0.001 A 
ATOM      4  C3  UNL d   1       1.433  -0.871   1.631  0.00  0.00     0.003 A 
ATOM      5  C4  UNL d   1       0.437  -0.904   2.606  0.00  0.00    -0.005 A 
ATOM      6  C5  UNL d   1      -0.848  -0.459   2.301  0.00  0.00     0.003 A 
ATOM      7  C6  UNL d   1      -1.137   0.020   1.022  0.00  0.00    -0.001 A 
ENDROOT
TORSDOF 0
ENDMDL
