MODEL 1
REMARK minimizedAffinity 6.36125088
REMARK minimizedRMSD -1
REMARK  3 active torsions:
REMARK  status: ('A' for Active; 'I' for Inactive)
REMARK    1  A    between atoms: C3'_2  and  C2'_3 
REMARK    2  A    between atoms: C2'_3  and  C1'_4 
REMARK    3  A    between atoms: C1'_4  and  C1_5 
ROOT
ATOM      1  C1  N4B d   1       1.195   3.280   0.201  0.00  0.00    -0.075 A 
ATOM      2  C2  N4B d   1       0.039   3.700  -0.494  0.00  0.00     0.002 A 
ATOM      3  C3  N4B d   1      -0.700   4.757  -0.021  0.00  0.00     0.002 A 
ATOM      4  C4  N4B d   1      -0.315   5.394   1.149  0.00  0.00    -0.004 A 
ATOM      5  C5  N4B d   1       0.817   4.998   1.800  0.00  0.00     0.002 A 
ATOM      6  C6  N4B d   1       1.572   3.940   1.334  0.00  0.00     0.002 A 
ENDROOT
BRANCH   1   7
ATOM      7  C1' N4B d   1       1.987   2.076  -0.230  0.00  0.00     0.057 C 
BRANCH   7   8
ATOM      8  C2' N4B d   1       1.978   1.043   0.893  0.00  0.00     0.009 C 
BRANCH   8   9
ATOM      9  C3' N4B d   1       2.787  -0.192   0.535  0.00  0.00     0.004 C 
ATOM     10  C4' N4B d   1       2.118  -1.044  -0.502  0.00  0.00     0.003 C 
ENDBRANCH   8   9
ENDBRANCH   7   8
ENDBRANCH   1   7
TORSDOF 3
ENDMDL
