MODEL 1
REMARK minimizedAffinity 9.9028492
REMARK minimizedRMSD -1
REMARK  3 active torsions:
REMARK  status: ('A' for Active; 'I' for Inactive)
REMARK    1  A    between atoms: C3'_2  and  C2'_3 
REMARK    2  A    between atoms: C2'_3  and  C1'_4 
REMARK    3  A    between atoms: C1'_4  and  C1_5 
ROOT
ATOM      1  C1  N4B d   1       5.318   2.385  -0.912  0.00  0.00    -0.075 A 
ATOM      2  C2  N4B d   1       6.000   1.842   0.199  0.00  0.00     0.002 A 
ATOM      3  C3  N4B d   1       5.379   0.914   0.999  0.00  0.00     0.002 A 
ATOM      4  C4  N4B d   1       4.076   0.530   0.720  0.00  0.00    -0.004 A 
ATOM      5  C5  N4B d   1       3.433   1.040  -0.370  0.00  0.00     0.002 A 
ATOM      6  C6  N4B d   1       4.047   1.971  -1.185  0.00  0.00     0.002 A 
ENDROOT
BRANCH   1   7
ATOM      7  C1' N4B d   1       5.925   3.466  -1.765  0.00  0.00     0.057 C 
BRANCH   7   8
ATOM      8  C2' N4B d   1       4.933   4.618  -1.893  0.00  0.00     0.009 C 
BRANCH   8   9
ATOM      9  C3' N4B d   1       5.545   5.944  -1.476  0.00  0.00     0.004 C 
ATOM     10  C4' N4B d   1       5.869   5.999  -0.013  0.00  0.00     0.003 C 
ENDBRANCH   8   9
ENDBRANCH   7   8
ENDBRANCH   1   7
TORSDOF 3
ENDMDL
