MODEL 1
REMARK minimizedAffinity 13.6401281
REMARK minimizedRMSD -1
REMARK  3 active torsions:
REMARK  status: ('A' for Active; 'I' for Inactive)
REMARK    1  A    between atoms: C3'_2  and  C2'_3 
REMARK    2  A    between atoms: C2'_3  and  C1'_4 
REMARK    3  A    between atoms: C1'_4  and  C1_5 
ROOT
ATOM      1  C1  N4B d   1       4.132   1.755   0.261  0.00  0.00    -0.075 A 
ATOM      2  C2  N4B d   1       2.751   1.668  -0.018  0.00  0.00     0.002 A 
ATOM      3  C3  N4B d   1       2.136   0.441  -0.066  0.00  0.00     0.002 A 
ATOM      4  C4  N4B d   1       2.882  -0.709   0.141  0.00  0.00    -0.004 A 
ATOM      5  C5  N4B d   1       4.211  -0.615   0.436  0.00  0.00     0.002 A 
ATOM      6  C6  N4B d   1       4.841   0.612   0.492  0.00  0.00     0.002 A 
ENDROOT
BRANCH   1   7
ATOM      7  C1' N4B d   1       4.866   3.068   0.240  0.00  0.00     0.057 C 
BRANCH   7   8
ATOM      8  C2' N4B d   1       4.892   3.604  -1.188  0.00  0.00     0.009 C 
BRANCH   8   9
ATOM      9  C3' N4B d   1       6.000   4.623  -1.393  0.00  0.00     0.004 C 
ATOM     10  C4' N4B d   1       5.683   5.956  -0.784  0.00  0.00     0.003 C 
ENDBRANCH   8   9
ENDBRANCH   7   8
ENDBRANCH   1   7
TORSDOF 3
ENDMDL
