MODEL 1
REMARK minimizedAffinity 15.6346378
REMARK minimizedRMSD -1
REMARK  3 active torsions:
REMARK  status: ('A' for Active; 'I' for Inactive)
REMARK    1  A    between atoms: C3'_2  and  C2'_3 
REMARK    2  A    between atoms: C2'_3  and  C1'_4 
REMARK    3  A    between atoms: C1'_4  and  C1_5 
ROOT
ATOM      1  C1  N4B d   1       3.536   1.550  -0.328  0.00  0.00    -0.075 A 
ATOM      2  C2  N4B d   1       4.186   1.881   0.881  0.00  0.00     0.002 A 
ATOM      3  C3  N4B d   1       5.406   2.513   0.854  0.00  0.00     0.002 A 
ATOM      4  C4  N4B d   1       6.000   2.805  -0.365  0.00  0.00    -0.004 A 
ATOM      5  C5  N4B d   1       5.353   2.504  -1.528  0.00  0.00     0.002 A 
ATOM      6  C6  N4B d   1       4.126   1.874  -1.516  0.00  0.00     0.002 A 
ENDROOT
BRANCH   1   7
ATOM      7  C1' N4B d   1       2.242   0.783  -0.350  0.00  0.00     0.057 C 
BRANCH   7   8
ATOM      8  C2' N4B d   1       2.491  -0.634   0.158  0.00  0.00     0.009 C 
BRANCH   8   9
ATOM      9  C3' N4B d   1       2.211  -1.677  -0.910  0.00  0.00     0.004 C 
ATOM     10  C4' N4B d   1       1.849  -3.014  -0.334  0.00  0.00     0.003 C 
ENDBRANCH   8   9
ENDBRANCH   7   8
ENDBRANCH   1   7
TORSDOF 3
ENDMDL
