MODEL 1
REMARK minimizedAffinity 8.25432682
REMARK minimizedRMSD -1
REMARK  3 active torsions:
REMARK  status: ('A' for Active; 'I' for Inactive)
REMARK    1  A    between atoms: C3'_2  and  C2'_3 
REMARK    2  A    between atoms: C2'_3  and  C1'_4 
REMARK    3  A    between atoms: C1'_4  and  C1_5 
ROOT
ATOM      1  C1  N4B d   1       2.181   0.551   1.381  0.00  0.00    -0.075 A 
ATOM      2  C2  N4B d   1       1.866  -0.117   0.177  0.00  0.00     0.002 A 
ATOM      3  C3  N4B d   1       2.550   0.184  -0.975  0.00  0.00     0.002 A 
ATOM      4  C4  N4B d   1       3.537   1.158  -0.951  0.00  0.00    -0.004 A 
ATOM      5  C5  N4B d   1       3.853   1.781   0.221  0.00  0.00     0.002 A 
ATOM      6  C6  N4B d   1       3.176   1.485   1.387  0.00  0.00     0.002 A 
ENDROOT
BRANCH   1   7
ATOM      7  C1' N4B d   1       1.402   0.318   2.646  0.00  0.00     0.057 C 
BRANCH   7   8
ATOM      8  C2' N4B d   1       1.375  -1.178   2.949  0.00  0.00     0.009 C 
BRANCH   8   9
ATOM      9  C3' N4B d   1       0.776  -1.470   4.314  0.00  0.00     0.004 C 
ATOM     10  C4' N4B d   1       0.708  -2.938   4.616  0.00  0.00     0.003 C 
ENDBRANCH   8   9
ENDBRANCH   7   8
ENDBRANCH   1   7
TORSDOF 3
ENDMDL
