MODEL 1
REMARK minimizedAffinity -3.59680939
REMARK minimizedRMSD -1
REMARK  1 active torsions:
REMARK  status: ('A' for Active; 'I' for Inactive)
REMARK    1  A    between atoms: C1_2  and  C2_3 
ROOT
ATOM      1  C2  UNL d   1       2.406  -1.039  -0.362  0.00  0.00    -0.077 A 
ATOM      2  C3  UNL d   1       2.429   0.345  -0.141  0.00  0.00     0.002 A 
ATOM      3  C4  UNL d   1       1.323   0.990   0.415  0.00  0.00     0.002 A 
ATOM      4  C5  UNL d   1       0.187   0.259   0.757  0.00  0.00    -0.004 A 
ATOM      5  C6  UNL d   1       0.153  -1.118   0.539  0.00  0.00     0.002 A 
ATOM      6  C7  UNL d   1       1.258  -1.764  -0.017  0.00  0.00     0.002 A 
ENDROOT
BRANCH   1   7
ATOM      7  C1  UNL d   1       3.617  -1.745  -0.916  0.00  0.00     0.055 C 
ATOM      8  C   UNL d   1       4.664  -0.751  -1.397  0.00  0.00     0.019 C 
ENDBRANCH   1   7
TORSDOF 1
ENDMDL
