MODEL 1
REMARK minimizedAffinity -5.93759346
REMARK minimizedRMSD -1
REMARK  1 active torsions:
REMARK  status: ('A' for Active; 'I' for Inactive)
REMARK    1  A    between atoms: C1_2  and  C2_3 
ROOT
ATOM      1  C2  UNL d   1       2.732  -0.214  -1.124  0.00  0.00    -0.077 A 
ATOM      2  C3  UNL d   1       1.932  -1.010  -0.292  0.00  0.00     0.002 A 
ATOM      3  C4  UNL d   1       0.974  -0.424   0.538  0.00  0.00     0.002 A 
ATOM      4  C5  UNL d   1       0.804   0.959   0.540  0.00  0.00    -0.004 A 
ATOM      5  C6  UNL d   1       1.596   1.759  -0.283  0.00  0.00     0.002 A 
ATOM      6  C7  UNL d   1       2.555   1.175  -1.112  0.00  0.00     0.002 A 
ENDROOT
BRANCH   1   7
ATOM      7  C1  UNL d   1       3.732  -0.848  -2.055  0.00  0.00     0.055 C 
ATOM      8  C   UNL d   1       4.723   0.178  -2.585  0.00  0.00     0.019 C 
ENDBRANCH   1   7
TORSDOF 1
ENDMDL
