MODEL 1
REMARK minimizedAffinity -5.50039244
REMARK minimizedRMSD -1
REMARK  1 active torsions:
REMARK  status: ('A' for Active; 'I' for Inactive)
REMARK    1  A    between atoms: C1_2  and  C2_3 
ROOT
ATOM      1  C2  UNL d   1       1.465  -1.150   0.335  0.00  0.00    -0.077 A 
ATOM      2  C3  UNL d   1       1.480   0.248   0.231  0.00  0.00     0.002 A 
ATOM      3  C4  UNL d   1       2.240   0.875  -0.759  0.00  0.00     0.002 A 
ATOM      4  C5  UNL d   1       2.985   0.111  -1.655  0.00  0.00    -0.004 A 
ATOM      5  C6  UNL d   1       2.978  -1.280  -1.559  0.00  0.00     0.002 A 
ATOM      6  C7  UNL d   1       2.221  -1.908  -0.569  0.00  0.00     0.002 A 
ENDROOT
BRANCH   1   7
ATOM      7  C1  UNL d   1       0.608  -1.829   1.371  0.00  0.00     0.055 C 
ATOM      8  C   UNL d   1      -0.390  -0.859   1.986  0.00  0.00     0.019 C 
ENDBRANCH   1   7
TORSDOF 1
ENDMDL
