MODEL 1
REMARK minimizedAffinity -3.71924448
REMARK minimizedRMSD -1
REMARK  1 active torsions:
REMARK  status: ('A' for Active; 'I' for Inactive)
REMARK    1  A    between atoms: C1_2  and  C2_3 
ROOT
ATOM      1  C2  UNL d   1       1.402  -0.767   0.565  0.00  0.00    -0.077 A 
ATOM      2  C3  UNL d   1       1.249   0.595   0.272  0.00  0.00     0.002 A 
ATOM      3  C4  UNL d   1       2.131   1.234  -0.602  0.00  0.00     0.002 A 
ATOM      4  C5  UNL d   1       3.169   0.517  -1.193  0.00  0.00    -0.004 A 
ATOM      5  C6  UNL d   1       3.331  -0.838  -0.907  0.00  0.00     0.002 A 
ATOM      6  C7  UNL d   1       2.451  -1.477  -0.033  0.00  0.00     0.002 A 
ENDROOT
BRANCH   1   7
ATOM      7  C1  UNL d   1       0.422  -1.469   1.468  0.00  0.00     0.055 C 
ATOM      8  C   UNL d   1      -0.147  -0.519   2.511  0.00  0.00     0.019 C 
ENDBRANCH   1   7
TORSDOF 1
ENDMDL
