MODEL 1
REMARK minimizedAffinity -3.32910132
REMARK minimizedRMSD -1
REMARK  1 active torsions:
REMARK  status: ('A' for Active; 'I' for Inactive)
REMARK    1  A    between atoms: C1_2  and  C2_3 
ROOT
ATOM      1  C2  UNL d   1       3.054  -0.802  -1.080  0.00  0.00    -0.077 A 
ATOM      2  C3  UNL d   1       2.813   0.543  -0.766  0.00  0.00     0.002 A 
ATOM      3  C4  UNL d   1       1.702   0.901  -0.001  0.00  0.00     0.002 A 
ATOM      4  C5  UNL d   1       0.826  -0.080   0.461  0.00  0.00    -0.004 A 
ATOM      5  C6  UNL d   1       1.056  -1.420   0.152  0.00  0.00     0.002 A 
ATOM      6  C7  UNL d   1       2.166  -1.780  -0.614  0.00  0.00     0.002 A 
ENDROOT
BRANCH   1   7
ATOM      7  C1  UNL d   1       4.279  -1.195  -1.864  0.00  0.00     0.055 C 
ATOM      8  C   UNL d   1       5.052   0.028  -2.335  0.00  0.00     0.019 C 
ENDBRANCH   1   7
TORSDOF 1
ENDMDL
