MODEL 1
REMARK minimizedAffinity 2.40004635
REMARK minimizedRMSD -1
REMARK  1 active torsions:
REMARK  status: ('A' for Active; 'I' for Inactive)
REMARK    1  A    between atoms: C1_2  and  C2_3 
ROOT
ATOM      1  C2  UNL d   1       1.671   0.531   0.549  0.00  0.00    -0.077 A 
ATOM      2  C3  UNL d   1       0.531  -0.125   1.034  0.00  0.00     0.002 A 
ATOM      3  C4  UNL d   1       0.303  -1.467   0.723  0.00  0.00     0.002 A 
ATOM      4  C5  UNL d   1       1.212  -2.165  -0.069  0.00  0.00    -0.004 A 
ATOM      5  C6  UNL d   1       2.347  -1.520  -0.558  0.00  0.00     0.002 A 
ATOM      6  C7  UNL d   1       2.577  -0.179  -0.250  0.00  0.00     0.002 A 
ENDROOT
BRANCH   1   7
ATOM      7  C1  UNL d   1       1.944   1.965   0.923  0.00  0.00     0.055 C 
ATOM      8  C   UNL d   1       3.287   2.107   1.624  0.00  0.00     0.019 C 
ENDBRANCH   1   7
TORSDOF 1
ENDMDL
