MODEL 1
REMARK minimizedAffinity -2.66685176
REMARK minimizedRMSD -1
REMARK  1 active torsions:
REMARK  status: ('A' for Active; 'I' for Inactive)
REMARK    1  A    between atoms: C1_2  and  C2_3 
ROOT
ATOM      1  C2  UNL d   1       3.016  -0.786  -0.901  0.00  0.00    -0.077 A 
ATOM      2  C3  UNL d   1       2.701  -1.521   0.251  0.00  0.00     0.002 A 
ATOM      3  C4  UNL d   1       1.610  -1.160   1.043  0.00  0.00     0.002 A 
ATOM      4  C5  UNL d   1       0.822  -0.067   0.691  0.00  0.00    -0.004 A 
ATOM      5  C6  UNL d   1       1.128   0.672  -0.451  0.00  0.00     0.002 A 
ATOM      6  C7  UNL d   1       2.219   0.314  -1.244  0.00  0.00     0.002 A 
ENDROOT
BRANCH   1   7
ATOM      7  C1  UNL d   1       4.163  -1.203  -1.784  0.00  0.00     0.055 C 
ATOM      8  C   UNL d   1       4.889   0.006  -2.356  0.00  0.00     0.019 C 
ENDBRANCH   1   7
TORSDOF 1
ENDMDL
