MODEL 1
REMARK minimizedAffinity -3.67710066
REMARK minimizedRMSD -1
REMARK  1 active torsions:
REMARK  status: ('A' for Active; 'I' for Inactive)
REMARK    1  A    between atoms: C1_2  and  C2_3 
ROOT
ATOM      1  C2  UNL d   1       3.351  -0.753  -1.046  0.00  0.00    -0.077 A 
ATOM      2  C3  UNL d   1       2.832   0.548  -0.999  0.00  0.00     0.002 A 
ATOM      3  C4  UNL d   1       1.668   0.820  -0.277  0.00  0.00     0.002 A 
ATOM      4  C5  UNL d   1       1.017  -0.204   0.408  0.00  0.00    -0.004 A 
ATOM      5  C6  UNL d   1       1.524  -1.502   0.366  0.00  0.00     0.002 A 
ATOM      6  C7  UNL d   1       2.686  -1.776  -0.356  0.00  0.00     0.002 A 
ENDROOT
BRANCH   1   7
ATOM      7  C1  UNL d   1       4.632  -1.038  -1.784  0.00  0.00     0.055 C 
ATOM      8  C   UNL d   1       4.949   0.061  -2.788  0.00  0.00     0.019 C 
ENDBRANCH   1   7
TORSDOF 1
ENDMDL
