MODEL 1
REMARK minimizedAffinity -3.96932769
REMARK minimizedRMSD -1
REMARK  1 active torsions:
REMARK  status: ('A' for Active; 'I' for Inactive)
REMARK    1  A    between atoms: C1_2  and  C2_3 
ROOT
ATOM      1  C2  UNL d   1       3.190  -0.695  -1.053  0.00  0.00    -0.077 A 
ATOM      2  C3  UNL d   1       2.867   0.635  -0.751  0.00  0.00     0.002 A 
ATOM      3  C4  UNL d   1       1.708   0.935  -0.033  0.00  0.00     0.002 A 
ATOM      4  C5  UNL d   1       0.865  -0.090   0.393  0.00  0.00    -0.004 A 
ATOM      5  C6  UNL d   1       1.177  -1.416   0.096  0.00  0.00     0.002 A 
ATOM      6  C7  UNL d   1       2.334  -1.717  -0.623  0.00  0.00     0.002 A 
ENDROOT
BRANCH   1   7
ATOM      7  C1  UNL d   1       4.465  -1.024  -1.785  0.00  0.00     0.055 C 
ATOM      8  C   UNL d   1       5.002   0.188  -2.532  0.00  0.00     0.019 C 
ENDBRANCH   1   7
TORSDOF 1
ENDMDL
