MODEL 1
REMARK minimizedAffinity -2.14573693
REMARK minimizedRMSD -1
REMARK  1 active torsions:
REMARK  status: ('A' for Active; 'I' for Inactive)
REMARK    1  A    between atoms: C1_2  and  C2_3 
ROOT
ATOM      1  C2  UNL d   1       2.212   0.082  -1.029  0.00  0.00    -0.077 A 
ATOM      2  C3  UNL d   1       1.265   0.698  -0.199  0.00  0.00     0.002 A 
ATOM      3  C4  UNL d   1       0.775   0.034   0.928  0.00  0.00     0.002 A 
ATOM      4  C5  UNL d   1       1.230  -1.246   1.237  0.00  0.00    -0.004 A 
ATOM      5  C6  UNL d   1       2.171  -1.868   0.416  0.00  0.00     0.002 A 
ATOM      6  C7  UNL d   1       2.661  -1.206  -0.711  0.00  0.00     0.002 A 
ENDROOT
BRANCH   1   7
ATOM      7  C1  UNL d   1       2.778   0.815  -2.217  0.00  0.00     0.055 C 
ATOM      8  C   UNL d   1       4.016   0.117  -2.760  0.00  0.00     0.019 C 
ENDBRANCH   1   7
TORSDOF 1
ENDMDL
