MODEL 1
REMARK minimizedAffinity 1.00870621
REMARK minimizedRMSD -1
REMARK  0 active torsions:
REMARK  status: ('A' for Active; 'I' for Inactive)
ROOT
ATOM      1  C   UNL d   1       0.570  -2.968  -0.025  0.00  0.00     0.023 A 
ATOM      2  C1  UNL d   1       0.714  -2.787  -1.401  0.00  0.00     0.003 A 
ATOM      3  C2  UNL d   1      -0.326  -2.227  -2.145  0.00  0.00     0.048 A 
ATOM      4  C3  UNL d   1      -1.507  -1.849  -1.508  0.00  0.00     0.023 A 
ATOM      5  C4  UNL d   1      -1.656  -2.028  -0.132  0.00  0.00     0.048 A 
ATOM      6  C5  UNL d   1      -0.614  -2.589   0.609  0.00  0.00     0.003 A 
ATOM      7  I   UNL d   1      -3.057  -1.015  -2.614  0.00  0.00    -0.146 I 
ENDROOT
TORSDOF 0
ENDMDL
