MODEL 1
REMARK minimizedAffinity 3.42849088
REMARK minimizedRMSD -1
REMARK  0 active torsions:
REMARK  status: ('A' for Active; 'I' for Inactive)
ROOT
ATOM      1  C   UNL d   1       0.633  -2.370  -0.606  0.00  0.00     0.023 A 
ATOM      2  C1  UNL d   1       0.530  -2.196  -1.986  0.00  0.00     0.003 A 
ATOM      3  C2  UNL d   1      -0.596  -1.575  -2.531  0.00  0.00     0.048 A 
ATOM      4  C3  UNL d   1      -1.615  -1.130  -1.690  0.00  0.00     0.023 A 
ATOM      5  C4  UNL d   1      -1.516  -1.301  -0.308  0.00  0.00     0.048 A 
ATOM      6  C5  UNL d   1      -0.388  -1.923   0.232  0.00  0.00     0.003 A 
ATOM      7  I   UNL d   1      -3.291  -0.205  -2.498  0.00  0.00    -0.146 I 
ENDROOT
TORSDOF 0
ENDMDL
