MODEL 1
REMARK minimizedAffinity 1.97476518
REMARK minimizedRMSD -1
REMARK  0 active torsions:
REMARK  status: ('A' for Active; 'I' for Inactive)
ROOT
ATOM      1  C   UNL d   1      -1.896  -2.904  -0.371  0.00  0.00     0.023 A 
ATOM      2  C1  UNL d   1      -1.753  -2.837  -1.757  0.00  0.00     0.003 A 
ATOM      3  C2  UNL d   1      -0.577  -2.334  -2.316  0.00  0.00     0.048 A 
ATOM      4  C3  UNL d   1       0.453  -1.899  -1.482  0.00  0.00     0.023 A 
ATOM      5  C4  UNL d   1       0.315  -1.965  -0.095  0.00  0.00     0.048 A 
ATOM      6  C5  UNL d   1      -0.864  -2.468   0.459  0.00  0.00     0.003 A 
ATOM      7  I   UNL d   1       2.206  -1.149  -2.311  0.00  0.00    -0.146 I 
ENDROOT
TORSDOF 0
ENDMDL
