MODEL 1
REMARK minimizedAffinity 9.03656101
REMARK minimizedRMSD -1
REMARK  0 active torsions:
REMARK  status: ('A' for Active; 'I' for Inactive)
ROOT
ATOM      1  C   UNL d   1       1.501  -2.119   3.147  0.00  0.00     0.023 A 
ATOM      2  C1  UNL d   1       2.460  -1.218   3.611  0.00  0.00     0.003 A 
ATOM      3  C2  UNL d   1       2.690  -0.026   2.921  0.00  0.00     0.048 A 
ATOM      4  C3  UNL d   1       1.957   0.260   1.770  0.00  0.00     0.023 A 
ATOM      5  C4  UNL d   1       0.996  -0.638   1.303  0.00  0.00     0.048 A 
ATOM      6  C5  UNL d   1       0.769  -1.829   1.995  0.00  0.00     0.003 A 
ATOM      7  I   UNL d   1       2.298   2.034   0.743  0.00  0.00    -0.146 I 
ENDROOT
TORSDOF 0
ENDMDL
