MODEL 1
REMARK minimizedAffinity 12.6501465
REMARK minimizedRMSD -1
REMARK  0 active torsions:
REMARK  status: ('A' for Active; 'I' for Inactive)
ROOT
ATOM      1  C   UNL d   1       1.206  -1.910   2.720  0.00  0.00     0.023 A 
ATOM      2  C1  UNL d   1       2.311  -1.204   3.199  0.00  0.00     0.003 A 
ATOM      3  C2  UNL d   1       2.693  -0.007   2.591  0.00  0.00     0.048 A 
ATOM      4  C3  UNL d   1       1.966   0.480   1.505  0.00  0.00     0.023 A 
ATOM      5  C4  UNL d   1       0.860  -0.222   1.024  0.00  0.00     0.048 A 
ATOM      6  C5  UNL d   1       0.482  -1.419   1.634  0.00  0.00     0.003 A 
ATOM      7  I   UNL d   1       2.533   2.262   0.599  0.00  0.00    -0.146 I 
ENDROOT
TORSDOF 0
ENDMDL
