MODEL 1
REMARK minimizedAffinity 1.59465647
REMARK minimizedRMSD -1
REMARK  0 active torsions:
REMARK  status: ('A' for Active; 'I' for Inactive)
ROOT
ATOM      1  C   UNL d   1       2.759   2.332   0.372  0.00  0.00     0.023 A 
ATOM      2  C1  UNL d   1       1.622   2.057  -0.388  0.00  0.00     0.003 A 
ATOM      3  C2  UNL d   1       0.755   1.032  -0.004  0.00  0.00     0.048 A 
ATOM      4  C3  UNL d   1       1.031   0.286   1.141  0.00  0.00     0.023 A 
ATOM      5  C4  UNL d   1       2.167   0.558   1.905  0.00  0.00     0.048 A 
ATOM      6  C5  UNL d   1       3.031   1.583   1.517  0.00  0.00     0.003 A 
ATOM      7  I   UNL d   1      -0.258  -1.241   1.714  0.00  0.00    -0.146 I 
ENDROOT
TORSDOF 0
ENDMDL
