MODEL 1
REMARK minimizedAffinity 6.03532505
REMARK minimizedRMSD -1
REMARK  0 active torsions:
REMARK  status: ('A' for Active; 'I' for Inactive)
ROOT
ATOM      1  C   UNL d   1      -5.797   2.863   0.602  0.00  0.00     0.023 A 
ATOM      2  C1  UNL d   1      -5.171   2.176  -0.438  0.00  0.00     0.003 A 
ATOM      3  C2  UNL d   1      -3.982   1.483  -0.203  0.00  0.00     0.048 A 
ATOM      4  C3  UNL d   1      -3.425   1.480   1.075  0.00  0.00     0.023 A 
ATOM      5  C4  UNL d   1      -4.048   2.166   2.119  0.00  0.00     0.048 A 
ATOM      6  C5  UNL d   1      -5.236   2.858   1.879  0.00  0.00     0.003 A 
ATOM      7  I   UNL d   1      -1.655   0.449   1.429  0.00  0.00    -0.146 I 
ENDROOT
TORSDOF 0
ENDMDL
