MODEL 1
REMARK minimizedAffinity -0.797372639
REMARK minimizedRMSD -1
REMARK  0 active torsions:
REMARK  status: ('A' for Active; 'I' for Inactive)
ROOT
ATOM      1  C1  BNZ d   1      -5.999  -5.954  -4.812  0.00  0.00     0.000 A 
ATOM      2  C2  BNZ d   1      -5.474  -5.664  -3.581  0.00  0.00     0.000 A 
ATOM      3  C3  BNZ d   1      -4.152  -5.346  -3.441  0.00  0.00     0.000 A 
ATOM      4  C4  BNZ d   1      -3.349  -5.356  -4.525  0.00  0.00     0.000 A 
ATOM      5  C5  BNZ d   1      -3.862  -5.655  -5.772  0.00  0.00     0.000 A 
ATOM      6  C6  BNZ d   1      -5.201  -5.937  -5.914  0.00  0.00     0.000 A 
ENDROOT
TORSDOF 0
ENDMDL
