MODEL 1
REMARK minimizedAffinity 8.38667583
REMARK minimizedRMSD -1
REMARK  0 active torsions:
REMARK  status: ('A' for Active; 'I' for Inactive)
ROOT
ATOM      1  C1  BNZ d   1      -5.001   4.901   0.770  0.00  0.00     0.000 A 
ATOM      2  C2  BNZ d   1      -4.210   3.799   0.955  0.00  0.00     0.000 A 
ATOM      3  C3  BNZ d   1      -3.253   3.780   1.931  0.00  0.00     0.000 A 
ATOM      4  C4  BNZ d   1      -3.061   4.876   2.693  0.00  0.00     0.000 A 
ATOM      5  C5  BNZ d   1      -3.845   5.998   2.513  0.00  0.00     0.000 A 
ATOM      6  C6  BNZ d   1      -4.833   6.000   1.556  0.00  0.00     0.000 A 
ENDROOT
TORSDOF 0
ENDMDL
