MODEL 1
REMARK minimizedAffinity 3.52302027
REMARK minimizedRMSD -1
REMARK  0 active torsions:
REMARK  status: ('A' for Active; 'I' for Inactive)
ROOT
ATOM      1  C1  BNZ d   1      -1.361  -1.243  -1.331  0.00  0.00     0.000 A 
ATOM      2  C2  BNZ d   1      -0.229  -0.478  -1.232  0.00  0.00     0.000 A 
ATOM      3  C3  BNZ d   1      -0.312   0.876  -1.066  0.00  0.00     0.000 A 
ATOM      4  C4  BNZ d   1      -1.523   1.468  -1.041  0.00  0.00     0.000 A 
ATOM      5  C5  BNZ d   1      -2.673   0.712  -1.149  0.00  0.00     0.000 A 
ATOM      6  C6  BNZ d   1      -2.587  -0.655  -1.277  0.00  0.00     0.000 A 
ENDROOT
TORSDOF 0
ENDMDL
