MODEL 1
REMARK minimizedAffinity -1.11181581
REMARK minimizedRMSD -1
REMARK  0 active torsions:
REMARK  status: ('A' for Active; 'I' for Inactive)
ROOT
ATOM      1  C1  BNZ d   1      -3.339  -5.353  -4.873  0.00  0.00     0.000 A 
ATOM      2  C2  BNZ d   1      -4.117  -5.358  -6.000  0.00  0.00     0.000 A 
ATOM      3  C3  BNZ d   1      -5.449  -5.658  -5.929  0.00  0.00     0.000 A 
ATOM      4  C4  BNZ d   1      -5.991  -5.991  -4.740  0.00  0.00     0.000 A 
ATOM      5  C5  BNZ d   1      -5.218  -6.000  -3.597  0.00  0.00     0.000 A 
ATOM      6  C6  BNZ d   1      -3.886  -5.660  -3.665  0.00  0.00     0.000 A 
ENDROOT
TORSDOF 0
ENDMDL
