MODEL 1
REMARK minimizedAffinity 3.80045629
REMARK minimizedRMSD -1
REMARK  0 active torsions:
REMARK  status: ('A' for Active; 'I' for Inactive)
ROOT
ATOM      1  C1  BNZ d   1       0.171   3.193   0.605  0.00  0.00     0.000 A 
ATOM      2  C2  BNZ d   1      -0.659   2.325   1.263  0.00  0.00     0.000 A 
ATOM      3  C3  BNZ d   1      -0.384   1.927   2.541  0.00  0.00     0.000 A 
ATOM      4  C4  BNZ d   1       0.739   2.364   3.145  0.00  0.00     0.000 A 
ATOM      5  C5  BNZ d   1       1.591   3.233   2.491  0.00  0.00     0.000 A 
ATOM      6  C6  BNZ d   1       1.291   3.662   1.219  0.00  0.00     0.000 A 
ENDROOT
TORSDOF 0
ENDMDL
