MODEL 1
REMARK minimizedAffinity 6.66005898
REMARK minimizedRMSD -1
REMARK  0 active torsions:
REMARK  status: ('A' for Active; 'I' for Inactive)
ROOT
ATOM      1  C1  BNZ d   1      -0.452   1.028   2.880  0.00  0.00     0.000 A 
ATOM      2  C2  BNZ d   1      -0.645   2.347   2.567  0.00  0.00     0.000 A 
ATOM      3  C3  BNZ d   1       0.418   3.187   2.387  0.00  0.00     0.000 A 
ATOM      4  C4  BNZ d   1       1.670   2.718   2.560  0.00  0.00     0.000 A 
ATOM      5  C5  BNZ d   1       1.882   1.393   2.885  0.00  0.00     0.000 A 
ATOM      6  C6  BNZ d   1       0.810   0.540   3.026  0.00  0.00     0.000 A 
ENDROOT
TORSDOF 0
ENDMDL
