MODEL 1
REMARK minimizedAffinity 3.54897237
REMARK minimizedRMSD -1
REMARK  0 active torsions:
REMARK  status: ('A' for Active; 'I' for Inactive)
ROOT
ATOM      1  C1  BNZ d   1       1.451   3.364   3.242  0.00  0.00     0.000 A 
ATOM      2  C2  BNZ d   1       1.485   4.105   2.091  0.00  0.00     0.000 A 
ATOM      3  C3  BNZ d   1       0.696   3.778   1.024  0.00  0.00     0.000 A 
ATOM      4  C4  BNZ d   1      -0.095   2.688   1.094  0.00  0.00     0.000 A 
ATOM      5  C5  BNZ d   1      -0.134   1.925   2.244  0.00  0.00     0.000 A 
ATOM      6  C6  BNZ d   1       0.632   2.280   3.330  0.00  0.00     0.000 A 
ENDROOT
TORSDOF 0
ENDMDL
