MODEL 1
REMARK minimizedAffinity -0.189225197
REMARK minimizedRMSD -1
REMARK  0 active torsions:
REMARK  status: ('A' for Active; 'I' for Inactive)
ROOT
ATOM      1  C1  BNZ d   1       0.547   2.619   2.940  0.00  0.00     0.000 A 
ATOM      2  C2  BNZ d   1      -0.505   2.495   2.071  0.00  0.00     0.000 A 
ATOM      3  C3  BNZ d   1      -0.515   3.172   0.884  0.00  0.00     0.000 A 
ATOM      4  C4  BNZ d   1       0.505   4.002   0.585  0.00  0.00     0.000 A 
ATOM      5  C5  BNZ d   1       1.568   4.145   1.454  0.00  0.00     0.000 A 
ATOM      6  C6  BNZ d   1       1.594   3.432   2.631  0.00  0.00     0.000 A 
ENDROOT
TORSDOF 0
ENDMDL
