MODEL 1
REMARK minimizedAffinity -0.237771347
REMARK minimizedRMSD -1
REMARK  0 active torsions:
REMARK  status: ('A' for Active; 'I' for Inactive)
ROOT
ATOM      1  C1  BNZ d   1      -0.759   2.800   2.311  0.00  0.00     0.000 A 
ATOM      2  C2  BNZ d   1       0.283   3.159   3.124  0.00  0.00     0.000 A 
ATOM      3  C3  BNZ d   1       1.351   3.854   2.629  0.00  0.00     0.000 A 
ATOM      4  C4  BNZ d   1       1.394   4.154   1.315  0.00  0.00     0.000 A 
ATOM      5  C5  BNZ d   1       0.356   3.791   0.480  0.00  0.00     0.000 A 
ATOM      6  C6  BNZ d   1      -0.735   3.126   0.989  0.00  0.00     0.000 A 
ENDROOT
TORSDOF 0
ENDMDL
