MODEL 1
REMARK minimizedAffinity -2.35355043
REMARK minimizedRMSD -1
REMARK  0 active torsions:
REMARK  status: ('A' for Active; 'I' for Inactive)
ROOT
ATOM      1  C1  BNZ d   1      -5.959  -3.212   5.984  0.00  0.00     0.000 A 
ATOM      2  C2  BNZ d   1      -5.957  -1.844   5.914  0.00  0.00     0.000 A 
ATOM      3  C3  BNZ d   1      -5.989  -1.205   4.706  0.00  0.00     0.000 A 
ATOM      4  C4  BNZ d   1      -5.983  -1.934   3.570  0.00  0.00     0.000 A 
ATOM      5  C5  BNZ d   1      -5.976  -3.313   3.625  0.00  0.00     0.000 A 
ATOM      6  C6  BNZ d   1      -5.983  -3.953   4.843  0.00  0.00     0.000 A 
ENDROOT
TORSDOF 0
ENDMDL
