MODEL 1
REMARK minimizedAffinity 4.55426741
REMARK minimizedRMSD -1
REMARK  0 active torsions:
REMARK  status: ('A' for Active; 'I' for Inactive)
ROOT
ATOM      1  C1  BNZ d   1       4.974  -4.533  -1.105  0.00  0.00     0.000 A 
ATOM      2  C2  BNZ d   1       4.632  -5.443  -2.069  0.00  0.00     0.000 A 
ATOM      3  C3  BNZ d   1       4.415  -5.047  -3.360  0.00  0.00     0.000 A 
ATOM      4  C4  BNZ d   1       4.501  -3.739  -3.675  0.00  0.00     0.000 A 
ATOM      5  C5  BNZ d   1       4.835  -2.808  -2.713  0.00  0.00     0.000 A 
ATOM      6  C6  BNZ d   1       5.091  -3.215  -1.423  0.00  0.00     0.000 A 
ENDROOT
TORSDOF 0
ENDMDL
