MODEL 1
REMARK minimizedAffinity 3.66173792
REMARK minimizedRMSD -1
REMARK  2 active torsions:
REMARK  status: ('A' for Active; 'I' for Inactive)
REMARK    1  A    between atoms: C2'_3  and  C1'_4 
REMARK    2  A    between atoms: C1'_4  and  C1_5 
ROOT
ATOM      1  C1  I4B d   1       1.001  -0.225  -0.301  0.00  0.00    -0.075 A 
ATOM      2  C2  I4B d   1      -0.250  -0.160  -0.862  0.00  0.00     0.003 A 
ATOM      3  C3  I4B d   1      -0.874  -1.333  -1.350  0.00  0.00     0.002 A 
ATOM      4  C4  I4B d   1      -0.195  -2.534  -1.304  0.00  0.00    -0.004 A 
ATOM      5  C5  I4B d   1       1.064  -2.602  -0.714  0.00  0.00     0.002 A 
ATOM      6  C6  I4B d   1       1.661  -1.442  -0.198  0.00  0.00     0.003 A 
ENDROOT
BRANCH   1   7
ATOM      7  C1' I4B d   1       1.645   1.039   0.175  0.00  0.00     0.060 C 
BRANCH   7   8
ATOM      8  C2' I4B d   1       0.547   1.978   0.631  0.00  0.00    -0.013 C 
ATOM      9  C4' I4B d   1       0.164   1.714   2.063  0.00  0.00     0.013 C 
ATOM     10  C3' I4B d   1       1.036   3.385   0.452  0.00  0.00     0.013 C 
ENDBRANCH   7   8
ENDBRANCH   1   7
TORSDOF 2
ENDMDL
