MODEL 1
REMARK minimizedAffinity 8.5862751
REMARK minimizedRMSD -1
REMARK  2 active torsions:
REMARK  status: ('A' for Active; 'I' for Inactive)
REMARK    1  A    between atoms: C2'_3  and  C1'_4 
REMARK    2  A    between atoms: C1'_4  and  C1_5 
ROOT
ATOM      1  C1  I4B d   1       0.065  -0.580  -0.074  0.00  0.00    -0.075 A 
ATOM      2  C2  I4B d   1      -0.403  -0.885  -1.327  0.00  0.00     0.003 A 
ATOM      3  C3  I4B d   1      -0.525  -2.236  -1.733  0.00  0.00     0.002 A 
ATOM      4  C4  I4B d   1      -0.122  -3.241  -0.878  0.00  0.00    -0.004 A 
ATOM      5  C5  I4B d   1       0.331  -2.931   0.401  0.00  0.00     0.002 A 
ATOM      6  C6  I4B d   1       0.414  -1.592   0.810  0.00  0.00     0.003 A 
ENDROOT
BRANCH   1   7
ATOM      7  C1' I4B d   1       0.212   0.859   0.310  0.00  0.00     0.060 C 
BRANCH   7   8
ATOM      8  C2' I4B d   1       1.495   1.001   1.103  0.00  0.00    -0.013 C 
ATOM      9  C4' I4B d   1       2.301   2.181   0.628  0.00  0.00     0.013 C 
ATOM     10  C3' I4B d   1       1.131   1.142   2.551  0.00  0.00     0.013 C 
ENDBRANCH   7   8
ENDBRANCH   1   7
TORSDOF 2
ENDMDL
