MODEL 1
REMARK minimizedAffinity 3.87617469
REMARK minimizedRMSD -1
REMARK  2 active torsions:
REMARK  status: ('A' for Active; 'I' for Inactive)
REMARK    1  A    between atoms: C2'_3  and  C1'_4 
REMARK    2  A    between atoms: C1'_4  and  C1_5 
ROOT
ATOM      1  C1  I4B d   1       1.204  -1.555  -0.190  0.00  0.00    -0.075 A 
ATOM      2  C2  I4B d   1       1.219  -0.227   0.157  0.00  0.00     0.003 A 
ATOM      3  C3  I4B d   1       0.104   0.597  -0.130  0.00  0.00     0.002 A 
ATOM      4  C4  I4B d   1      -0.977   0.068  -0.806  0.00  0.00    -0.004 A 
ATOM      5  C5  I4B d   1      -0.999  -1.284  -1.137  0.00  0.00     0.002 A 
ATOM      6  C6  I4B d   1       0.092  -2.104  -0.816  0.00  0.00     0.003 A 
ENDROOT
BRANCH   1   7
ATOM      7  C1' I4B d   1       2.412  -2.389   0.098  0.00  0.00     0.060 C 
BRANCH   7   8
ATOM      8  C2' I4B d   1       3.494  -2.000  -0.888  0.00  0.00    -0.013 C 
ATOM      9  C4' I4B d   1       3.255  -2.627  -2.236  0.00  0.00     0.013 C 
ATOM     10  C3' I4B d   1       3.517  -0.503  -0.984  0.00  0.00     0.013 C 
ENDBRANCH   7   8
ENDBRANCH   1   7
TORSDOF 2
ENDMDL
