MODEL 1
REMARK minimizedAffinity 4.46430016
REMARK minimizedRMSD -1
REMARK  2 active torsions:
REMARK  status: ('A' for Active; 'I' for Inactive)
REMARK    1  A    between atoms: C2'_3  and  C1'_4 
REMARK    2  A    between atoms: C1'_4  and  C1_5 
ROOT
ATOM      1  C1  I4B d   1       2.591  -0.084  -0.652  0.00  0.00    -0.075 A 
ATOM      2  C2  I4B d   1       1.777   0.531   0.266  0.00  0.00     0.003 A 
ATOM      3  C3  I4B d   1       2.186   1.735   0.888  0.00  0.00     0.002 A 
ATOM      4  C4  I4B d   1       3.430   2.259   0.604  0.00  0.00    -0.004 A 
ATOM      5  C5  I4B d   1       4.245   1.647  -0.344  0.00  0.00     0.002 A 
ATOM      6  C6  I4B d   1       3.819   0.474  -0.985  0.00  0.00     0.003 A 
ENDROOT
BRANCH   1   7
ATOM      7  C1' I4B d   1       2.142  -1.372  -1.266  0.00  0.00     0.060 C 
BRANCH   7   8
ATOM      8  C2' I4B d   1       1.239  -2.073  -0.271  0.00  0.00    -0.013 C 
ATOM      9  C4' I4B d   1       0.008  -2.619  -0.945  0.00  0.00     0.013 C 
ATOM     10  C3' I4B d   1       2.029  -3.166   0.382  0.00  0.00     0.013 C 
ENDBRANCH   7   8
ENDBRANCH   1   7
TORSDOF 2
ENDMDL
