MODEL 1
REMARK minimizedAffinity 7.08951616
REMARK minimizedRMSD -1
REMARK  2 active torsions:
REMARK  status: ('A' for Active; 'I' for Inactive)
REMARK    1  A    between atoms: C2'_3  and  C1'_4 
REMARK    2  A    between atoms: C1'_4  and  C1_5 
ROOT
ATOM      1  C1  I4B d   1       0.776   0.170   1.294  0.00  0.00    -0.075 A 
ATOM      2  C2  I4B d   1       1.323   1.425   1.402  0.00  0.00     0.003 A 
ATOM      3  C3  I4B d   1       1.780   1.897   2.656  0.00  0.00     0.002 A 
ATOM      4  C4  I4B d   1       1.625   1.108   3.777  0.00  0.00    -0.004 A 
ATOM      5  C5  I4B d   1       1.091  -0.172   3.662  0.00  0.00     0.002 A 
ATOM      6  C6  I4B d   1       0.675  -0.649   2.410  0.00  0.00     0.003 A 
ENDROOT
BRANCH   1   7
ATOM      7  C1' I4B d   1       0.274  -0.285  -0.040  0.00  0.00     0.060 C 
BRANCH   7   8
ATOM      8  C2' I4B d   1       0.149  -1.794  -0.002  0.00  0.00    -0.013 C 
ATOM      9  C4' I4B d   1      -0.997  -2.268  -0.857  0.00  0.00     0.013 C 
ATOM     10  C3' I4B d   1       1.449  -2.378  -0.467  0.00  0.00     0.013 C 
ENDBRANCH   7   8
ENDBRANCH   1   7
TORSDOF 2
ENDMDL
