MODEL 1
REMARK minimizedAffinity -1.84646416
REMARK minimizedRMSD -1
REMARK  2 active torsions:
REMARK  status: ('A' for Active; 'I' for Inactive)
REMARK    1  A    between atoms: C2'_3  and  C1'_4 
REMARK    2  A    between atoms: C1'_4  and  C1_5 
ROOT
ATOM      1  C1  I4B d   1      -1.223   0.548   0.133  0.00  0.00    -0.075 A 
ATOM      2  C2  I4B d   1      -2.569   0.474   0.390  0.00  0.00     0.003 A 
ATOM      3  C3  I4B d   1      -3.123   1.168   1.493  0.00  0.00     0.002 A 
ATOM      4  C4  I4B d   1      -2.292   1.879   2.335  0.00  0.00    -0.004 A 
ATOM      5  C5  I4B d   1      -0.931   1.971   2.060  0.00  0.00     0.002 A 
ATOM      6  C6  I4B d   1      -0.394   1.312   0.944  0.00  0.00     0.003 A 
ENDROOT
BRANCH   1   7
ATOM      7  C1' I4B d   1      -0.666  -0.225  -1.021  0.00  0.00     0.060 C 
BRANCH   7   8
ATOM      8  C2' I4B d   1      -0.020  -1.481  -0.473  0.00  0.00    -0.013 C 
ATOM      9  C4' I4B d   1      -0.893  -2.687  -0.703  0.00  0.00     0.013 C 
ATOM     10  C3' I4B d   1       1.314  -1.644  -1.138  0.00  0.00     0.013 C 
ENDBRANCH   7   8
ENDBRANCH   1   7
TORSDOF 2
ENDMDL
