MODEL 1
REMARK minimizedAffinity 2.36231399
REMARK minimizedRMSD -1
REMARK  2 active torsions:
REMARK  status: ('A' for Active; 'I' for Inactive)
REMARK    1  A    between atoms: C2'_3  and  C1'_4 
REMARK    2  A    between atoms: C1'_4  and  C1_5 
ROOT
ATOM      1  C1  I4B d   1       0.379   0.049  -0.389  0.00  0.00    -0.075 A 
ATOM      2  C2  I4B d   1      -0.681   0.431  -1.172  0.00  0.00     0.003 A 
ATOM      3  C3  I4B d   1      -1.368  -0.525  -1.959  0.00  0.00     0.002 A 
ATOM      4  C4  I4B d   1      -0.933  -1.834  -1.971  0.00  0.00    -0.004 A 
ATOM      5  C5  I4B d   1       0.128  -2.225  -1.159  0.00  0.00     0.002 A 
ATOM      6  C6  I4B d   1       0.780  -1.280  -0.353  0.00  0.00     0.003 A 
ENDROOT
BRANCH   1   7
ATOM      7  C1' I4B d   1       1.102   1.091   0.404  0.00  0.00     0.060 C 
BRANCH   7   8
ATOM      8  C2' I4B d   1       0.492   1.130   1.790  0.00  0.00    -0.013 C 
ATOM      9  C4' I4B d   1       1.558   1.143   2.854  0.00  0.00     0.013 C 
ATOM     10  C3' I4B d   1      -0.377   2.348   1.879  0.00  0.00     0.013 C 
ENDBRANCH   7   8
ENDBRANCH   1   7
TORSDOF 2
ENDMDL
