MODEL 1
REMARK minimizedAffinity 6.46056271
REMARK minimizedRMSD -1
REMARK  0 active torsions:
REMARK  status: ('A' for Active; 'I' for Inactive)
ROOT
ATOM      1  C1  BNZ d   1       1.133  -0.372   4.332  0.00  0.00     0.000 A 
ATOM      2  C2  BNZ d   1       0.729  -0.197   5.629  0.00  0.00     0.000 A 
ATOM      3  C3  BNZ d   1      -0.564  -0.444   5.999  0.00  0.00     0.000 A 
ATOM      4  C4  BNZ d   1      -1.459  -0.828   5.066  0.00  0.00     0.000 A 
ATOM      5  C5  BNZ d   1      -1.069  -1.000   3.753  0.00  0.00     0.000 A 
ATOM      6  C6  BNZ d   1       0.242  -0.787   3.391  0.00  0.00     0.000 A 
ENDROOT
TORSDOF 0
ENDMDL
