MODEL 1
REMARK minimizedAffinity 2.01602268
REMARK minimizedRMSD -1
REMARK  0 active torsions:
REMARK  status: ('A' for Active; 'I' for Inactive)
ROOT
ATOM      1  C1  BNZ d   1      -3.778   3.593  -1.470  0.00  0.00     0.000 A 
ATOM      2  C2  BNZ d   1      -3.000   2.481  -1.285  0.00  0.00     0.000 A 
ATOM      3  C3  BNZ d   1      -1.821   2.331  -1.960  0.00  0.00     0.000 A 
ATOM      4  C4  BNZ d   1      -1.441   3.272  -2.848  0.00  0.00     0.000 A 
ATOM      5  C5  BNZ d   1      -2.219   4.394  -3.053  0.00  0.00     0.000 A 
ATOM      6  C6  BNZ d   1      -3.386   4.561  -2.343  0.00  0.00     0.000 A 
ENDROOT
TORSDOF 0
ENDMDL
