MODEL 1
REMARK minimizedAffinity 12.9723349
REMARK minimizedRMSD -1
REMARK  0 active torsions:
REMARK  status: ('A' for Active; 'I' for Inactive)
ROOT
ATOM      1  C1  BNZ d   1       1.566  -3.642  -4.972  0.00  0.00     0.000 A 
ATOM      2  C2  BNZ d   1       1.089  -3.660  -3.689  0.00  0.00     0.000 A 
ATOM      3  C3  BNZ d   1       0.744  -4.838  -3.087  0.00  0.00     0.000 A 
ATOM      4  C4  BNZ d   1       0.837  -5.990  -3.782  0.00  0.00     0.000 A 
ATOM      5  C5  BNZ d   1       1.307  -5.987  -5.080  0.00  0.00     0.000 A 
ATOM      6  C6  BNZ d   1       1.691  -4.804  -5.669  0.00  0.00     0.000 A 
ENDROOT
TORSDOF 0
ENDMDL
