MODEL 1
REMARK minimizedAffinity 10.5809317
REMARK minimizedRMSD -1
REMARK  0 active torsions:
REMARK  status: ('A' for Active; 'I' for Inactive)
ROOT
ATOM      1  C1  BNZ d   1      -2.938   5.783  -2.169  0.00  0.00     0.000 A 
ATOM      2  C2  BNZ d   1      -3.924   5.137  -1.472  0.00  0.00     0.000 A 
ATOM      3  C3  BNZ d   1      -4.082   3.783  -1.575  0.00  0.00     0.000 A 
ATOM      4  C4  BNZ d   1      -3.281   3.083  -2.405  0.00  0.00     0.000 A 
ATOM      5  C5  BNZ d   1      -2.288   3.722  -3.121  0.00  0.00     0.000 A 
ATOM      6  C6  BNZ d   1      -2.107   5.079  -2.985  0.00  0.00     0.000 A 
ENDROOT
TORSDOF 0
ENDMDL
