MODEL 1
REMARK minimizedAffinity -0.195956051
REMARK minimizedRMSD -1
REMARK  0 active torsions:
REMARK  status: ('A' for Active; 'I' for Inactive)
ROOT
ATOM      1  C1  BNZ d   1      -0.051  -2.373   3.919  0.00  0.00     0.000 A 
ATOM      2  C2  BNZ d   1      -0.981  -3.378   3.939  0.00  0.00     0.000 A 
ATOM      3  C3  BNZ d   1      -1.870  -3.490   4.970  0.00  0.00     0.000 A 
ATOM      4  C4  BNZ d   1      -1.803  -2.621   6.000  0.00  0.00     0.000 A 
ATOM      5  C5  BNZ d   1      -0.865  -1.608   6.000  0.00  0.00     0.000 A 
ATOM      6  C6  BNZ d   1       0.003  -1.475   4.941  0.00  0.00     0.000 A 
ENDROOT
TORSDOF 0
ENDMDL
