MODEL 1
REMARK minimizedAffinity 11.9380417
REMARK minimizedRMSD -1
REMARK  0 active torsions:
REMARK  status: ('A' for Active; 'I' for Inactive)
ROOT
ATOM      1  C1  BNZ d   1       2.383  -0.195   1.895  0.00  0.00     0.000 A 
ATOM      2  C2  BNZ d   1       1.161  -0.806   1.993  0.00  0.00     0.000 A 
ATOM      3  C3  BNZ d   1       0.456  -0.779   3.164  0.00  0.00     0.000 A 
ATOM      4  C4  BNZ d   1       0.990  -0.175   4.245  0.00  0.00     0.000 A 
ATOM      5  C5  BNZ d   1       2.225   0.438   4.165  0.00  0.00     0.000 A 
ATOM      6  C6  BNZ d   1       2.914   0.442   2.974  0.00  0.00     0.000 A 
ENDROOT
TORSDOF 0
ENDMDL
