MODEL 1
REMARK minimizedAffinity 1.5085597
REMARK minimizedRMSD -1
REMARK  0 active torsions:
REMARK  status: ('A' for Active; 'I' for Inactive)
ROOT
ATOM      1  C1  BNZ d   1      -2.599   3.650  -3.689  0.00  0.00     0.000 A 
ATOM      2  C2  BNZ d   1      -2.438   3.668  -5.049  0.00  0.00     0.000 A 
ATOM      3  C3  BNZ d   1      -2.214   4.842  -5.712  0.00  0.00     0.000 A 
ATOM      4  C4  BNZ d   1      -2.192   6.000  -5.021  0.00  0.00     0.000 A 
ATOM      5  C5  BNZ d   1      -2.361   5.999  -3.651  0.00  0.00     0.000 A 
ATOM      6  C6  BNZ d   1      -2.547   4.812  -2.982  0.00  0.00     0.000 A 
ENDROOT
TORSDOF 0
ENDMDL
