MODEL 1
REMARK minimizedAffinity 1.55829322
REMARK minimizedRMSD -1
REMARK  0 active torsions:
REMARK  status: ('A' for Active; 'I' for Inactive)
ROOT
ATOM      1  C1  BNZ d   1       1.457   4.766  -1.874  0.00  0.00     0.000 A 
ATOM      2  C2  BNZ d   1       0.747   3.607  -2.041  0.00  0.00     0.000 A 
ATOM      3  C3  BNZ d   1       0.110   3.018  -0.984  0.00  0.00     0.000 A 
ATOM      4  C4  BNZ d   1       0.217   3.566   0.244  0.00  0.00     0.000 A 
ATOM      5  C5  BNZ d   1       0.937   4.729   0.430  0.00  0.00     0.000 A 
ATOM      6  C6  BNZ d   1       1.545   5.340  -0.643  0.00  0.00     0.000 A 
ENDROOT
TORSDOF 0
ENDMDL
