MODEL 1
REMARK minimizedAffinity 2.16539454
REMARK minimizedRMSD -1
REMARK  0 active torsions:
REMARK  status: ('A' for Active; 'I' for Inactive)
ROOT
ATOM      1  C1  BNZ d   1       1.174   3.644  -0.934  0.00  0.00     0.000 A 
ATOM      2  C2  BNZ d   1       1.729   4.829  -1.337  0.00  0.00     0.000 A 
ATOM      3  C3  BNZ d   1       1.422   5.998  -0.700  0.00  0.00     0.000 A 
ATOM      4  C4  BNZ d   1       0.531   5.988   0.313  0.00  0.00     0.000 A 
ATOM      5  C5  BNZ d   1      -0.045   4.803   0.725  0.00  0.00     0.000 A 
ATOM      6  C6  BNZ d   1       0.296   3.622   0.106  0.00  0.00     0.000 A 
ENDROOT
TORSDOF 0
ENDMDL
