MODEL 1
REMARK minimizedAffinity 1.78167129
REMARK minimizedRMSD -1
REMARK  0 active torsions:
REMARK  status: ('A' for Active; 'I' for Inactive)
ROOT
ATOM      1  C1  BNZ d   1       1.126   5.999  -1.139  0.00  0.00     0.000 A 
ATOM      2  C2  BNZ d   1       1.166   4.836  -1.861  0.00  0.00     0.000 A 
ATOM      3  C3  BNZ d   1       0.786   3.650  -1.297  0.00  0.00     0.000 A 
ATOM      4  C4  BNZ d   1       0.405   3.622  -0.004  0.00  0.00     0.000 A 
ATOM      5  C5  BNZ d   1       0.369   4.785   0.740  0.00  0.00     0.000 A 
ATOM      6  C6  BNZ d   1       0.715   5.983   0.158  0.00  0.00     0.000 A 
ENDROOT
TORSDOF 0
ENDMDL
