MODEL 1
REMARK minimizedAffinity 7.94912672
REMARK minimizedRMSD -1
REMARK  0 active torsions:
REMARK  status: ('A' for Active; 'I' for Inactive)
ROOT
ATOM      1  C1  BNZ d   1       0.747  -0.393   4.003  0.00  0.00     0.000 A 
ATOM      2  C2  BNZ d   1       0.531  -1.111   2.857  0.00  0.00     0.000 A 
ATOM      3  C3  BNZ d   1       1.470  -1.143   1.864  0.00  0.00     0.000 A 
ATOM      4  C4  BNZ d   1       2.604  -0.426   2.000  0.00  0.00     0.000 A 
ATOM      5  C5  BNZ d   1       2.832   0.310   3.145  0.00  0.00     0.000 A 
ATOM      6  C6  BNZ d   1       1.902   0.309   4.160  0.00  0.00     0.000 A 
ENDROOT
TORSDOF 0
ENDMDL
