MODEL 1
REMARK minimizedAffinity 10.2571735
REMARK minimizedRMSD -1
REMARK  0 active torsions:
REMARK  status: ('A' for Active; 'I' for Inactive)
ROOT
ATOM      1  C1  BNZ d   1      -1.760   3.123  -3.433  0.00  0.00     0.000 A 
ATOM      2  C2  BNZ d   1      -1.856   3.021  -4.795  0.00  0.00     0.000 A 
ATOM      3  C3  BNZ d   1      -1.710   4.122  -5.592  0.00  0.00     0.000 A 
ATOM      4  C4  BNZ d   1      -1.508   5.328  -5.024  0.00  0.00     0.000 A 
ATOM      5  C5  BNZ d   1      -1.418   5.449  -3.652  0.00  0.00     0.000 A 
ATOM      6  C6  BNZ d   1      -1.526   4.332  -2.855  0.00  0.00     0.000 A 
ENDROOT
TORSDOF 0
ENDMDL
