MODEL 1
REMARK minimizedAffinity 9.89480591
REMARK minimizedRMSD -1
REMARK  0 active torsions:
REMARK  status: ('A' for Active; 'I' for Inactive)
ROOT
ATOM      1  C1  BNZ d   1       1.483   3.660  -0.234  0.00  0.00     0.000 A 
ATOM      2  C2  BNZ d   1       1.109   4.831   0.370  0.00  0.00     0.000 A 
ATOM      3  C3  BNZ d   1       1.045   5.996  -0.341  0.00  0.00     0.000 A 
ATOM      4  C4  BNZ d   1       1.392   5.998  -1.644  0.00  0.00     0.000 A 
ATOM      5  C5  BNZ d   1       1.780   4.828  -2.265  0.00  0.00     0.000 A 
ATOM      6  C6  BNZ d   1       1.806   3.649  -1.556  0.00  0.00     0.000 A 
ENDROOT
TORSDOF 0
ENDMDL
