MODEL 1
REMARK minimizedAffinity 4.78745461
REMARK minimizedRMSD -1
REMARK  0 active torsions:
REMARK  status: ('A' for Active; 'I' for Inactive)
ROOT
ATOM      1  C1  BNZ d   1      -1.976  -4.185   1.603  0.00  0.00     0.000 A 
ATOM      2  C2  BNZ d   1      -0.987  -3.251   1.445  0.00  0.00     0.000 A 
ATOM      3  C3  BNZ d   1      -0.671  -2.768   0.206  0.00  0.00     0.000 A 
ATOM      4  C4  BNZ d   1      -1.316  -3.249  -0.877  0.00  0.00     0.000 A 
ATOM      5  C5  BNZ d   1      -2.309  -4.198  -0.735  0.00  0.00     0.000 A 
ATOM      6  C6  BNZ d   1      -2.651  -4.652   0.518  0.00  0.00     0.000 A 
ENDROOT
TORSDOF 0
ENDMDL
