MODEL 1
REMARK minimizedAffinity 8.92741585
REMARK minimizedRMSD -1
REMARK  0 active torsions:
REMARK  status: ('A' for Active; 'I' for Inactive)
ROOT
ATOM      1  C1  BNZ d   1       1.131   3.646  -1.098  0.00  0.00     0.000 A 
ATOM      2  C2  BNZ d   1       1.442   4.912  -1.517  0.00  0.00     0.000 A 
ATOM      3  C3  BNZ d   1       1.130   6.000  -0.750  0.00  0.00     0.000 A 
ATOM      4  C4  BNZ d   1       0.473   5.823   0.414  0.00  0.00     0.000 A 
ATOM      5  C5  BNZ d   1       0.143   4.554   0.846  0.00  0.00     0.000 A 
ATOM      6  C6  BNZ d   1       0.494   3.459   0.090  0.00  0.00     0.000 A 
ENDROOT
TORSDOF 0
ENDMDL
