MODEL 1
REMARK minimizedAffinity -0.566722035
REMARK minimizedRMSD -1
REMARK  0 active torsions:
REMARK  status: ('A' for Active; 'I' for Inactive)
ROOT
ATOM      1  C   UNL d   1       3.387   3.083  -0.297  0.00  0.00     0.020 A 
ATOM      2  C1  UNL d   1       2.431   3.090   0.718  0.00  0.00     0.020 A 
ATOM      3  C2  UNL d   1       1.537   2.024   0.842  0.00  0.00     0.034 A 
ATOM      4  C3  UNL d   1       1.597   0.948  -0.051  0.00  0.00     0.017 A 
ATOM      5  C4  UNL d   1       2.557   0.942  -1.069  0.00  0.00     0.017 A 
ATOM      6  C5  UNL d   1       3.450   2.012  -1.189  0.00  0.00     0.034 A 
ATOM      7 Cl   UNL d   1       2.692  -0.351  -2.208  0.00  0.00    -0.070 Cl
ATOM      8 Cl1  UNL d   1       0.461  -0.336   0.162  0.00  0.00    -0.070 Cl
ENDROOT
TORSDOF 0
ENDMDL
