MODEL 1
REMARK minimizedAffinity -2.56270504
REMARK minimizedRMSD -1
REMARK  0 active torsions:
REMARK  status: ('A' for Active; 'I' for Inactive)
ROOT
ATOM      1  C   UNL d   1       2.926   2.426   2.620  0.00  0.00     0.020 A 
ATOM      2  C1  UNL d   1       1.904   3.342   2.371  0.00  0.00     0.020 A 
ATOM      3  C2  UNL d   1       0.771   2.946   1.657  0.00  0.00     0.034 A 
ATOM      4  C3  UNL d   1       0.657   1.631   1.190  0.00  0.00     0.017 A 
ATOM      5  C4  UNL d   1       1.684   0.713   1.440  0.00  0.00     0.017 A 
ATOM      6  C5  UNL d   1       2.816   1.115   2.156  0.00  0.00     0.034 A 
ATOM      7 Cl   UNL d   1       1.615  -0.926   0.896  0.00  0.00    -0.070 Cl
ATOM      8 Cl1  UNL d   1      -0.772   1.211   0.314  0.00  0.00    -0.070 Cl
ENDROOT
TORSDOF 0
ENDMDL
