MODEL 1
REMARK minimizedAffinity -1.4255352
REMARK minimizedRMSD -1
REMARK  0 active torsions:
REMARK  status: ('A' for Active; 'I' for Inactive)
ROOT
ATOM      1  C   UNL d   1      -0.355  -2.230   2.102  0.00  0.00     0.020 A 
ATOM      2  C1  UNL d   1      -1.439  -1.449   2.501  0.00  0.00     0.020 A 
ATOM      3  C2  UNL d   1      -1.646  -0.194   1.925  0.00  0.00     0.034 A 
ATOM      4  C3  UNL d   1      -0.768   0.284   0.946  0.00  0.00     0.017 A 
ATOM      5  C4  UNL d   1       0.320  -0.500   0.545  0.00  0.00     0.017 A 
ATOM      6  C5  UNL d   1       0.523  -1.756   1.126  0.00  0.00     0.034 A 
ATOM      7 Cl   UNL d   1       1.447   0.023  -0.657  0.00  0.00    -0.070 Cl
ATOM      8 Cl1  UNL d   1      -1.085   1.845   0.275  0.00  0.00    -0.070 Cl
ENDROOT
TORSDOF 0
ENDMDL
