MODEL 1
REMARK minimizedAffinity -0.90111953
REMARK minimizedRMSD -1
REMARK  0 active torsions:
REMARK  status: ('A' for Active; 'I' for Inactive)
ROOT
ATOM      1  C   UNL d   1       0.887   0.237   0.135  0.00  0.00     0.020 A 
ATOM      2  C1  UNL d   1      -0.030   0.750  -0.782  0.00  0.00     0.020 A 
ATOM      3  C2  UNL d   1      -1.367   0.353  -0.729  0.00  0.00     0.034 A 
ATOM      4  C3  UNL d   1      -1.792  -0.559   0.244  0.00  0.00     0.017 A 
ATOM      5  C4  UNL d   1      -0.872  -1.074   1.164  0.00  0.00     0.017 A 
ATOM      6  C5  UNL d   1       0.467  -0.673   1.105  0.00  0.00     0.034 A 
ATOM      7 Cl   UNL d   1      -1.321  -2.204   2.392  0.00  0.00    -0.070 Cl
ATOM      8 Cl1  UNL d   1      -3.462  -1.006   0.252  0.00  0.00    -0.070 Cl
ENDROOT
TORSDOF 0
ENDMDL
