MODEL 1
REMARK minimizedAffinity -2.44642043
REMARK minimizedRMSD -1
REMARK  0 active torsions:
REMARK  status: ('A' for Active; 'I' for Inactive)
ROOT
ATOM      1  C   UNL d   1      -2.608  -1.080   0.998  0.00  0.00     0.020 A 
ATOM      2  C1  UNL d   1      -3.144  -1.137  -0.287  0.00  0.00     0.020 A 
ATOM      3  C2  UNL d   1      -2.359  -0.784  -1.387  0.00  0.00     0.034 A 
ATOM      4  C3  UNL d   1      -1.034  -0.374  -1.203  0.00  0.00     0.017 A 
ATOM      5  C4  UNL d   1      -0.497  -0.317   0.088  0.00  0.00     0.017 A 
ATOM      6  C5  UNL d   1      -1.287  -0.672   1.186  0.00  0.00     0.034 A 
ATOM      7 Cl   UNL d   1       1.130   0.179   0.394  0.00  0.00    -0.070 Cl
ATOM      8 Cl1  UNL d   1      -0.121   0.047  -2.608  0.00  0.00    -0.070 Cl
ENDROOT
TORSDOF 0
ENDMDL
