MODEL 1
REMARK minimizedAffinity -2.92848849
REMARK minimizedRMSD -1
REMARK  0 active torsions:
REMARK  status: ('A' for Active; 'I' for Inactive)
ROOT
ATOM      1  C   UNL d   1       0.250   0.022  -0.385  0.00  0.00     0.020 A 
ATOM      2  C1  UNL d   1      -0.779   0.126  -1.320  0.00  0.00     0.020 A 
ATOM      3  C2  UNL d   1      -2.017  -0.468  -1.065  0.00  0.00     0.034 A 
ATOM      4  C3  UNL d   1      -2.229  -1.168   0.129  0.00  0.00     0.017 A 
ATOM      5  C4  UNL d   1      -1.196  -1.271   1.067  0.00  0.00     0.017 A 
ATOM      6  C5  UNL d   1       0.042  -0.674   0.806  0.00  0.00     0.034 A 
ATOM      7 Cl   UNL d   1      -1.382  -2.118   2.562  0.00  0.00    -0.070 Cl
ATOM      8 Cl1  UNL d   1      -3.785  -1.876   0.379  0.00  0.00    -0.070 Cl
ENDROOT
TORSDOF 0
ENDMDL
