MODEL 1
REMARK minimizedAffinity -4.22909451
REMARK minimizedRMSD -1
REMARK  0 active torsions:
REMARK  status: ('A' for Active; 'I' for Inactive)
ROOT
ATOM      1  C   UNL d   1      -2.727  -0.532   0.221  0.00  0.00     0.020 A 
ATOM      2  C1  UNL d   1      -2.963  -0.829  -1.121  0.00  0.00     0.020 A 
ATOM      3  C2  UNL d   1      -1.911  -0.796  -2.039  0.00  0.00     0.034 A 
ATOM      4  C3  UNL d   1      -0.618  -0.467  -1.616  0.00  0.00     0.017 A 
ATOM      5  C4  UNL d   1      -0.382  -0.170  -0.269  0.00  0.00     0.017 A 
ATOM      6  C5  UNL d   1      -1.439  -0.204   0.646  0.00  0.00     0.034 A 
ATOM      7 Cl   UNL d   1       1.186   0.246   0.328  0.00  0.00    -0.070 Cl
ATOM      8 Cl1  UNL d   1       0.635  -0.447  -2.805  0.00  0.00    -0.070 Cl
ENDROOT
TORSDOF 0
ENDMDL
