MODEL 1
REMARK minimizedAffinity -2.51347899
REMARK minimizedRMSD -1
REMARK  0 active torsions:
REMARK  status: ('A' for Active; 'I' for Inactive)
ROOT
ATOM      1  C   UNL d   1       3.613   3.134   0.057  0.00  0.00     0.020 A 
ATOM      2  C1  UNL d   1       2.856   2.975   1.218  0.00  0.00     0.020 A 
ATOM      3  C2  UNL d   1       2.137   1.796   1.426  0.00  0.00     0.034 A 
ATOM      4  C3  UNL d   1       2.173   0.772   0.472  0.00  0.00     0.017 A 
ATOM      5  C4  UNL d   1       2.932   0.933  -0.692  0.00  0.00     0.017 A 
ATOM      6  C5  UNL d   1       3.651   2.115  -0.896  0.00  0.00     0.034 A 
ATOM      7 Cl   UNL d   1       3.026  -0.286  -1.914  0.00  0.00    -0.070 Cl
ATOM      8 Cl1  UNL d   1       1.260  -0.659   0.795  0.00  0.00    -0.070 Cl
ENDROOT
TORSDOF 0
ENDMDL
