MODEL 1
REMARK minimizedAffinity -4.50786734
REMARK minimizedRMSD -1
REMARK  0 active torsions:
REMARK  status: ('A' for Active; 'I' for Inactive)
ROOT
ATOM      1  C   UNL d   1      -2.219  -0.390   0.737  0.00  0.00     0.020 A 
ATOM      2  C1  UNL d   1      -2.564  -0.641  -0.591  0.00  0.00     0.020 A 
ATOM      3  C2  UNL d   1      -1.611  -0.492  -1.600  0.00  0.00     0.034 A 
ATOM      4  C3  UNL d   1      -0.308  -0.091  -1.284  0.00  0.00     0.017 A 
ATOM      5  C4  UNL d   1       0.038   0.160   0.048  0.00  0.00     0.017 A 
ATOM      6  C5  UNL d   1      -0.921   0.010   1.055  0.00  0.00     0.034 A 
ATOM      7 Cl   UNL d   1       1.626   0.658   0.516  0.00  0.00    -0.070 Cl
ATOM      8 Cl1  UNL d   1       0.820   0.072  -2.583  0.00  0.00    -0.070 Cl
ENDROOT
TORSDOF 0
ENDMDL
