MODEL 1
REMARK minimizedAffinity -1.91412985
REMARK minimizedRMSD -1
REMARK  0 active torsions:
REMARK  status: ('A' for Active; 'I' for Inactive)
ROOT
ATOM      1  C   UNL d   1       0.664   0.380  -1.310  0.00  0.00     0.020 A 
ATOM      2  C1  UNL d   1       1.572  -0.125  -0.380  0.00  0.00     0.020 A 
ATOM      3  C2  UNL d   1       1.111  -0.829   0.735  0.00  0.00     0.034 A 
ATOM      4  C3  UNL d   1      -0.262  -1.031   0.922  0.00  0.00     0.017 A 
ATOM      5  C4  UNL d   1      -1.172  -0.524  -0.013  0.00  0.00     0.017 A 
ATOM      6  C5  UNL d   1      -0.705   0.180  -1.127  0.00  0.00     0.034 A 
ATOM      7 Cl   UNL d   1      -2.880  -0.733   0.150  0.00  0.00    -0.070 Cl
ATOM      8 Cl1  UNL d   1      -0.761  -1.912   2.322  0.00  0.00    -0.070 Cl
ENDROOT
TORSDOF 0
ENDMDL
