MODEL 1
REMARK minimizedAffinity 0.912649691
REMARK minimizedRMSD -1
REMARK  0 active torsions:
REMARK  status: ('A' for Active; 'I' for Inactive)
ROOT
ATOM      1  C   UNL d   1       2.707   3.824   2.074  0.00  0.00     0.020 A 
ATOM      2  C1  UNL d   1       1.697   2.992   2.559  0.00  0.00     0.020 A 
ATOM      3  C2  UNL d   1       1.272   1.897   1.804  0.00  0.00     0.034 A 
ATOM      4  C3  UNL d   1       1.856   1.630   0.560  0.00  0.00     0.017 A 
ATOM      5  C4  UNL d   1       2.869   2.465   0.075  0.00  0.00     0.017 A 
ATOM      6  C5  UNL d   1       3.291   3.560   0.835  0.00  0.00     0.034 A 
ATOM      7 Cl   UNL d   1       3.637   2.200  -1.451  0.00  0.00    -0.070 Cl
ATOM      8 Cl1  UNL d   1       1.281   0.259  -0.319  0.00  0.00    -0.070 Cl
ENDROOT
TORSDOF 0
ENDMDL
