MODEL 1
REMARK minimizedAffinity -5.2477355
REMARK minimizedRMSD -1
REMARK  0 active torsions:
REMARK  status: ('A' for Active; 'I' for Inactive)
ROOT
ATOM      1  C   UNL d   1      -0.350   1.344  -4.868  0.00  0.00     0.020 A 
ATOM      2  C1  UNL d   1       0.621   0.742  -5.667  0.00  0.00     0.020 A 
ATOM      3  C2  UNL d   1       1.565  -0.112  -5.093  0.00  0.00     0.034 A 
ATOM      4  C3  UNL d   1       1.541  -0.366  -3.717  0.00  0.00     0.017 A 
ATOM      5  C4  UNL d   1       0.566   0.239  -2.916  0.00  0.00     0.017 A 
ATOM      6  C5  UNL d   1      -0.377   1.093  -3.495  0.00  0.00     0.034 A 
ATOM      7 Cl   UNL d   1       0.473  -0.026  -1.210  0.00  0.00    -0.070 Cl
ATOM      8 Cl1  UNL d   1       2.739  -1.433  -3.076  0.00  0.00    -0.070 Cl
ENDROOT
TORSDOF 0
ENDMDL
