MODEL 1
REMARK minimizedAffinity -3.8110249
REMARK minimizedRMSD -1
REMARK  0 active torsions:
REMARK  status: ('A' for Active; 'I' for Inactive)
ROOT
ATOM      1  C   UNL d   1      -3.073  -1.043  -0.594  0.00  0.00     0.020 A 
ATOM      2  C1  UNL d   1      -2.780  -0.889   0.760  0.00  0.00     0.020 A 
ATOM      3  C2  UNL d   1      -1.515  -0.448   1.155  0.00  0.00     0.034 A 
ATOM      4  C3  UNL d   1      -0.539  -0.159   0.194  0.00  0.00     0.017 A 
ATOM      5  C4  UNL d   1      -0.835  -0.314  -1.165  0.00  0.00     0.017 A 
ATOM      6  C5  UNL d   1      -2.103  -0.756  -1.555  0.00  0.00     0.034 A 
ATOM      7 Cl   UNL d   1       0.318   0.022  -2.409  0.00  0.00    -0.070 Cl
ATOM      8 Cl1  UNL d   1       1.004   0.382   0.753  0.00  0.00    -0.070 Cl
ENDROOT
TORSDOF 0
ENDMDL
