MODEL 1
REMARK minimizedAffinity -2.42364264
REMARK minimizedRMSD -1
REMARK  0 active torsions:
REMARK  status: ('A' for Active; 'I' for Inactive)
ROOT
ATOM      1  C   UNL d   1       1.041  -0.415   0.659  0.00  0.00     0.020 A 
ATOM      2  C1  UNL d   1       0.042  -1.029   1.413  0.00  0.00     0.020 A 
ATOM      3  C2  UNL d   1      -1.261  -1.102   0.917  0.00  0.00     0.034 A 
ATOM      4  C3  UNL d   1      -1.569  -0.561  -0.337  0.00  0.00     0.017 A 
ATOM      5  C4  UNL d   1      -0.565   0.055  -1.093  0.00  0.00     0.017 A 
ATOM      6  C5  UNL d   1       0.738   0.126  -0.592  0.00  0.00     0.034 A 
ATOM      7 Cl   UNL d   1      -0.868   0.745  -2.648  0.00  0.00    -0.070 Cl
ATOM      8 Cl1  UNL d   1      -3.202  -0.688  -0.888  0.00  0.00    -0.070 Cl
ENDROOT
TORSDOF 0
ENDMDL
