MODEL 1
REMARK minimizedAffinity -2.66148162
REMARK minimizedRMSD -1
REMARK  0 active torsions:
REMARK  status: ('A' for Active; 'I' for Inactive)
ROOT
ATOM      1  C   UNL d   1      -2.668  -2.026   0.808  0.00  0.00     0.020 A 
ATOM      2  C1  UNL d   1      -2.751  -0.827   0.101  0.00  0.00     0.020 A 
ATOM      3  C2  UNL d   1      -1.645   0.023   0.036  0.00  0.00     0.034 A 
ATOM      4  C3  UNL d   1      -0.451  -0.325   0.679  0.00  0.00     0.017 A 
ATOM      5  C4  UNL d   1      -0.368  -1.529   1.388  0.00  0.00     0.017 A 
ATOM      6  C5  UNL d   1      -1.479  -2.376   1.450  0.00  0.00     0.034 A 
ATOM      7 Cl   UNL d   1       1.070  -2.026   2.206  0.00  0.00    -0.070 Cl
ATOM      8 Cl1  UNL d   1       0.877   0.774   0.556  0.00  0.00    -0.070 Cl
ENDROOT
TORSDOF 0
ENDMDL
