MODEL 1
REMARK minimizedAffinity -0.111964434
REMARK minimizedRMSD -1
REMARK  0 active torsions:
REMARK  status: ('A' for Active; 'I' for Inactive)
ROOT
ATOM      1  C   UNL d   1      -2.330  -1.244   0.796  0.00  0.00     0.020 A 
ATOM      2  C1  UNL d   1      -1.448  -1.494   1.846  0.00  0.00     0.020 A 
ATOM      3  C2  UNL d   1      -0.130  -1.036   1.776  0.00  0.00     0.034 A 
ATOM      4  C3  UNL d   1       0.309  -0.325   0.654  0.00  0.00     0.017 A 
ATOM      5  C4  UNL d   1      -0.577  -0.074  -0.400  0.00  0.00     0.017 A 
ATOM      6  C5  UNL d   1      -1.895  -0.535  -0.325  0.00  0.00     0.034 A 
ATOM      7 Cl   UNL d   1      -0.108   0.796  -1.818  0.00  0.00    -0.070 Cl
ATOM      8 Cl1  UNL d   1       1.951   0.212   0.635  0.00  0.00    -0.070 Cl
ENDROOT
TORSDOF 0
ENDMDL
