MODEL 1
REMARK minimizedAffinity -4.28300095
REMARK minimizedRMSD -1
REMARK  0 active torsions:
REMARK  status: ('A' for Active; 'I' for Inactive)
ROOT
ATOM      1  C   UNL d   1      -2.514  -0.921   0.778  0.00  0.00     0.020 A 
ATOM      2  C1  UNL d   1      -2.890  -1.140  -0.547  0.00  0.00     0.020 A 
ATOM      3  C2  UNL d   1      -2.004  -0.837  -1.583  0.00  0.00     0.034 A 
ATOM      4  C3  UNL d   1      -0.738  -0.312  -1.296  0.00  0.00     0.017 A 
ATOM      5  C4  UNL d   1      -0.363  -0.093   0.035  0.00  0.00     0.017 A 
ATOM      6  C5  UNL d   1      -1.254  -0.398   1.068  0.00  0.00     0.034 A 
ATOM      7 Cl   UNL d   1       1.182   0.552   0.467  0.00  0.00    -0.070 Cl
ATOM      8 Cl1  UNL d   1       0.307   0.040  -2.626  0.00  0.00    -0.070 Cl
ENDROOT
TORSDOF 0
ENDMDL
