MODEL 1
REMARK minimizedAffinity -4.06761742
REMARK minimizedRMSD -1
REMARK  0 active torsions:
REMARK  status: ('A' for Active; 'I' for Inactive)
ROOT
ATOM      1  C   UNL d   1      -3.096  -1.224  -0.694  0.00  0.00     0.020 A 
ATOM      2  C1  UNL d   1      -2.675  -1.129   0.631  0.00  0.00     0.020 A 
ATOM      3  C2  UNL d   1      -1.400  -0.640   0.926  0.00  0.00     0.034 A 
ATOM      4  C3  UNL d   1      -0.543  -0.243  -0.107  0.00  0.00     0.017 A 
ATOM      5  C4  UNL d   1      -0.967  -0.338  -1.437  0.00  0.00     0.017 A 
ATOM      6  C5  UNL d   1      -2.244  -0.829  -1.726  0.00  0.00     0.034 A 
ATOM      7 Cl   UNL d   1       0.035   0.132  -2.765  0.00  0.00    -0.070 Cl
ATOM      8 Cl1  UNL d   1       1.019   0.354   0.330  0.00  0.00    -0.070 Cl
ENDROOT
TORSDOF 0
ENDMDL
