MODEL 1
REMARK minimizedAffinity -2.40455389
REMARK minimizedRMSD -1
REMARK  0 active torsions:
REMARK  status: ('A' for Active; 'I' for Inactive)
ROOT
ATOM      1  C   UNL d   1      -2.721  -0.844  -0.701  0.00  0.00     0.020 A 
ATOM      2  C1  UNL d   1      -2.794  -0.122   0.490  0.00  0.00     0.020 A 
ATOM      3  C2  UNL d   1      -1.668   0.551   0.968  0.00  0.00     0.034 A 
ATOM      4  C3  UNL d   1      -0.464   0.504   0.256  0.00  0.00     0.017 A 
ATOM      5  C4  UNL d   1      -0.391  -0.222  -0.939  0.00  0.00     0.017 A 
ATOM      6  C5  UNL d   1      -1.522  -0.894  -1.413  0.00  0.00     0.034 A 
ATOM      7 Cl   UNL d   1       1.059  -0.327  -1.873  0.00  0.00    -0.070 Cl
ATOM      8 Cl1  UNL d   1       0.889   1.360   0.906  0.00  0.00    -0.070 Cl
ENDROOT
TORSDOF 0
ENDMDL
