MODEL 1
REMARK minimizedAffinity 14.2146683
REMARK minimizedRMSD -1
REMARK  0 active torsions:
REMARK  status: ('A' for Active; 'I' for Inactive)
ROOT
ATOM      1  C   UNL d   1       4.215   3.078   1.115  0.00  0.00     0.077 C 
ATOM      2  C1  UNL d   1       3.624   2.113   2.099  0.00  0.00    -0.074 A 
ATOM      3  C2  UNL d   1       4.116   2.028   3.406  0.00  0.00    -0.005 A 
ATOM      4  C3  UNL d   1       3.550   1.133   4.313  0.00  0.00     0.006 A 
ATOM      5  C4  UNL d   1       2.488   0.315   3.924  0.00  0.00    -0.005 A 
ATOM      6  C5  UNL d   1       1.982   0.387   2.623  0.00  0.00    -0.074 A 
ATOM      7  C6  UNL d   1       0.835  -0.478   2.191  0.00  0.00     0.077 C 
ATOM      8  C7  UNL d   1       2.552   1.294   1.718  0.00  0.00    -0.001 A 
ENDROOT
TORSDOF 0
ENDMDL
