MODEL 1
REMARK minimizedAffinity 11.0911541
REMARK minimizedRMSD -1
REMARK  0 active torsions:
REMARK  status: ('A' for Active; 'I' for Inactive)
ROOT
ATOM      1  C   UNL d   1       1.622  -4.395  -5.624  0.00  0.00     0.077 C 
ATOM      2  C1  UNL d   1       1.564  -2.898  -5.686  0.00  0.00    -0.074 A 
ATOM      3  C2  UNL d   1       0.361  -2.236  -5.955  0.00  0.00    -0.005 A 
ATOM      4  C3  UNL d   1       0.320  -0.843  -5.999  0.00  0.00     0.006 A 
ATOM      5  C4  UNL d   1       1.479  -0.098  -5.776  0.00  0.00    -0.005 A 
ATOM      6  C5  UNL d   1       2.690  -0.742  -5.504  0.00  0.00    -0.074 A 
ATOM      7  C6  UNL d   1       3.943   0.043  -5.252  0.00  0.00     0.077 C 
ATOM      8  C7  UNL d   1       2.722  -2.143  -5.454  0.00  0.00    -0.001 A 
ENDROOT
TORSDOF 0
ENDMDL
