MODEL 1
REMARK minimizedAffinity 15.1888704
REMARK minimizedRMSD -1
REMARK  0 active torsions:
REMARK  status: ('A' for Active; 'I' for Inactive)
ROOT
ATOM      1  C   UNL d   1      -0.543  -3.349  -5.999  0.00  0.00     0.077 C 
ATOM      2  C1  UNL d   1       0.463  -2.311  -5.599  0.00  0.00    -0.074 A 
ATOM      3  C2  UNL d   1       0.253  -0.959  -5.886  0.00  0.00    -0.005 A 
ATOM      4  C3  UNL d   1       1.193  -0.003  -5.498  0.00  0.00     0.006 A 
ATOM      5  C4  UNL d   1       2.350  -0.391  -4.821  0.00  0.00    -0.005 A 
ATOM      6  C5  UNL d   1       2.576  -1.738  -4.525  0.00  0.00    -0.074 A 
ATOM      7  C6  UNL d   1       3.810  -2.170  -3.789  0.00  0.00     0.077 C 
ATOM      8  C7  UNL d   1       1.624  -2.691  -4.911  0.00  0.00    -0.001 A 
ENDROOT
TORSDOF 0
ENDMDL
