MODEL 1
REMARK minimizedAffinity 8.64771938
REMARK minimizedRMSD -1
REMARK  0 active torsions:
REMARK  status: ('A' for Active; 'I' for Inactive)
ROOT
ATOM      1  C   UNL d   1      -2.365  -1.064   1.344  0.00  0.00     0.077 C 
ATOM      2  C1  UNL d   1      -0.988  -0.897   1.915  0.00  0.00    -0.074 A 
ATOM      3  C2  UNL d   1      -0.215   0.227   1.609  0.00  0.00    -0.005 A 
ATOM      4  C3  UNL d   1       1.060   0.373   2.156  0.00  0.00     0.006 A 
ATOM      5  C4  UNL d   1       1.574  -0.601   3.012  0.00  0.00    -0.005 A 
ATOM      6  C5  UNL d   1       0.814  -1.732   3.330  0.00  0.00    -0.074 A 
ATOM      7  C6  UNL d   1       1.347  -2.784   4.257  0.00  0.00     0.077 C 
ATOM      8  C7  UNL d   1      -0.469  -1.868   2.783  0.00  0.00    -0.001 A 
ENDROOT
TORSDOF 0
ENDMDL
