MODEL 1
REMARK minimizedAffinity 8.17769718
REMARK minimizedRMSD -1
REMARK  0 active torsions:
REMARK  status: ('A' for Active; 'I' for Inactive)
ROOT
ATOM      1  C   UNL d   1      -1.422  -4.432  -5.997  0.00  0.00     0.077 C 
ATOM      2  C1  UNL d   1      -1.228  -3.155  -5.235  0.00  0.00    -0.074 A 
ATOM      3  C2  UNL d   1      -1.916  -2.919  -4.041  0.00  0.00    -0.005 A 
ATOM      4  C3  UNL d   1      -1.718  -1.731  -3.338  0.00  0.00     0.006 A 
ATOM      5  C4  UNL d   1      -0.832  -0.768  -3.821  0.00  0.00    -0.005 A 
ATOM      6  C5  UNL d   1      -0.134  -0.986  -5.013  0.00  0.00    -0.074 A 
ATOM      7  C6  UNL d   1       0.830   0.034  -5.542  0.00  0.00     0.077 C 
ATOM      8  C7  UNL d   1      -0.333  -2.186  -5.710  0.00  0.00    -0.001 A 
ENDROOT
TORSDOF 0
ENDMDL
