MODEL 1
REMARK minimizedAffinity 9.24010944
REMARK minimizedRMSD -1
REMARK  0 active torsions:
REMARK  status: ('A' for Active; 'I' for Inactive)
ROOT
ATOM      1  C   UNL d   1       1.012  -3.221   4.573  0.00  0.00     0.077 C 
ATOM      2  C1  UNL d   1       0.815  -1.985   3.748  0.00  0.00    -0.074 A 
ATOM      3  C2  UNL d   1       1.910  -1.255   3.274  0.00  0.00    -0.005 A 
ATOM      4  C3  UNL d   1       1.712  -0.112   2.500  0.00  0.00     0.006 A 
ATOM      5  C4  UNL d   1       0.418   0.312   2.191  0.00  0.00    -0.005 A 
ATOM      6  C5  UNL d   1      -0.689  -0.405   2.655  0.00  0.00    -0.074 A 
ATOM      7  C6  UNL d   1      -2.085   0.031   2.325  0.00  0.00     0.077 C 
ATOM      8  C7  UNL d   1      -0.481  -1.557   3.427  0.00  0.00    -0.001 A 
ENDROOT
TORSDOF 0
ENDMDL
