MODEL 1
REMARK minimizedAffinity 4.21813631
REMARK minimizedRMSD -1
REMARK  0 active torsions:
REMARK  status: ('A' for Active; 'I' for Inactive)
ROOT
ATOM      1  C   UNL d   1       1.972  -2.336   5.290  0.00  0.00     0.077 C 
ATOM      2  C1  UNL d   1       1.266  -1.467   4.293  0.00  0.00    -0.074 A 
ATOM      3  C2  UNL d   1       0.829  -1.986   3.069  0.00  0.00    -0.005 A 
ATOM      4  C3  UNL d   1       0.165  -1.168   2.156  0.00  0.00     0.006 A 
ATOM      5  C4  UNL d   1      -0.069   0.174   2.455  0.00  0.00    -0.005 A 
ATOM      6  C5  UNL d   1       0.359   0.710   3.674  0.00  0.00    -0.074 A 
ATOM      7  C6  UNL d   1       0.107   2.149   4.016  0.00  0.00     0.077 C 
ATOM      8  C7  UNL d   1       1.020  -0.120   4.590  0.00  0.00    -0.001 A 
ENDROOT
TORSDOF 0
ENDMDL
