MODEL 1
REMARK minimizedAffinity 14.6333036
REMARK minimizedRMSD -1
REMARK  0 active torsions:
REMARK  status: ('A' for Active; 'I' for Inactive)
ROOT
ATOM      1  C   UNL d   1      -2.494  -1.944   2.114  0.00  0.00     0.077 C 
ATOM      2  C1  UNL d   1      -1.164  -1.461   2.611  0.00  0.00    -0.074 A 
ATOM      3  C2  UNL d   1      -0.801  -0.114   2.500  0.00  0.00    -0.005 A 
ATOM      4  C3  UNL d   1       0.435   0.323   2.976  0.00  0.00     0.006 A 
ATOM      5  C4  UNL d   1       1.319  -0.580   3.567  0.00  0.00    -0.005 A 
ATOM      6  C5  UNL d   1       0.973  -1.930   3.688  0.00  0.00    -0.074 A 
ATOM      7  C6  UNL d   1       1.908  -2.912   4.329  0.00  0.00     0.077 C 
ATOM      8  C7  UNL d   1      -0.273  -2.360   3.213  0.00  0.00    -0.001 A 
ENDROOT
TORSDOF 0
ENDMDL
