MODEL 1
REMARK minimizedAffinity 10.7594585
REMARK minimizedRMSD -1
REMARK  0 active torsions:
REMARK  status: ('A' for Active; 'I' for Inactive)
ROOT
ATOM      1  C   UNL d   1      -5.461   2.192  -5.356  0.00  0.00     0.077 C 
ATOM      2  C1  UNL d   1      -4.455   2.005  -4.259  0.00  0.00    -0.074 A 
ATOM      3  C2  UNL d   1      -3.475   2.972  -4.011  0.00  0.00    -0.005 A 
ATOM      4  C3  UNL d   1      -2.552   2.789  -2.981  0.00  0.00     0.006 A 
ATOM      5  C4  UNL d   1      -2.600   1.640  -2.191  0.00  0.00    -0.005 A 
ATOM      6  C5  UNL d   1      -3.573   0.663  -2.424  0.00  0.00    -0.074 A 
ATOM      7  C6  UNL d   1      -3.644  -0.573  -1.577  0.00  0.00     0.077 C 
ATOM      8  C7  UNL d   1      -4.501   0.857  -3.456  0.00  0.00    -0.001 A 
ENDROOT
TORSDOF 0
ENDMDL
