MODEL 1
REMARK minimizedAffinity 11.3511133
REMARK minimizedRMSD -1
REMARK  0 active torsions:
REMARK  status: ('A' for Active; 'I' for Inactive)
ROOT
ATOM      1  C   UNL d   1       3.164  -1.832   2.996  0.00  0.00     0.077 C 
ATOM      2  C1  UNL d   1       4.158  -2.250   4.038  0.00  0.00    -0.074 A 
ATOM      3  C2  UNL d   1       5.086  -1.339   4.552  0.00  0.00    -0.005 A 
ATOM      4  C3  UNL d   1       5.999  -1.739   5.528  0.00  0.00     0.006 A 
ATOM      5  C4  UNL d   1       5.993  -3.053   5.998  0.00  0.00    -0.005 A 
ATOM      6  C5  UNL d   1       5.072  -3.978   5.496  0.00  0.00    -0.074 A 
ATOM      7  C6  UNL d   1       5.045  -5.391   5.998  0.00  0.00     0.077 C 
ATOM      8  C7  UNL d   1       4.153  -3.566   4.521  0.00  0.00    -0.001 A 
ENDROOT
TORSDOF 0
ENDMDL
