MODEL 1
REMARK minimizedAffinity 11.625947
REMARK minimizedRMSD -1
REMARK  0 active torsions:
REMARK  status: ('A' for Active; 'I' for Inactive)
ROOT
ATOM      1  C   UNL d   1      -0.349  -5.991   0.408  0.00  0.00     0.077 C 
ATOM      2  C1  UNL d   1       0.968  -5.286   0.268  0.00  0.00    -0.074 A 
ATOM      3  C2  UNL d   1       2.142  -6.000   0.010  0.00  0.00    -0.005 A 
ATOM      4  C3  UNL d   1       3.357  -5.329  -0.127  0.00  0.00     0.006 A 
ATOM      5  C4  UNL d   1       3.410  -3.940  -0.008  0.00  0.00    -0.005 A 
ATOM      6  C5  UNL d   1       2.246  -3.209   0.250  0.00  0.00    -0.074 A 
ATOM      7  C6  UNL d   1       2.284  -1.715   0.371  0.00  0.00     0.077 C 
ATOM      8  C7  UNL d   1       1.028  -3.890   0.379  0.00  0.00    -0.001 A 
ENDROOT
TORSDOF 0
ENDMDL
