MODEL 1
REMARK minimizedAffinity 15.8492031
REMARK minimizedRMSD -1
REMARK  0 active torsions:
REMARK  status: ('A' for Active; 'I' for Inactive)
ROOT
ATOM      1  C   UNL d   1      -3.303  -3.592  -6.000  0.00  0.00     0.077 C 
ATOM      2  C1  UNL d   1      -4.214  -2.682  -5.232  0.00  0.00    -0.074 A 
ATOM      3  C2  UNL d   1      -5.152  -1.881  -5.890  0.00  0.00    -0.005 A 
ATOM      4  C3  UNL d   1      -6.000  -1.046  -5.162  0.00  0.00     0.006 A 
ATOM      5  C4  UNL d   1      -5.917  -1.004  -3.769  0.00  0.00    -0.005 A 
ATOM      6  C5  UNL d   1      -4.986  -1.798  -3.093  0.00  0.00    -0.074 A 
ATOM      7  C6  UNL d   1      -4.891  -1.772  -1.597  0.00  0.00     0.077 C 
ATOM      8  C7  UNL d   1      -4.143  -2.640  -3.832  0.00  0.00    -0.001 A 
ENDROOT
TORSDOF 0
ENDMDL
