MODEL 1
REMARK minimizedAffinity 3.65348554
REMARK minimizedRMSD -1
REMARK  0 active torsions:
REMARK  status: ('A' for Active; 'I' for Inactive)
ROOT
ATOM      1  C   UNL d   1      -2.429   2.085  -3.215  0.00  0.00     0.077 C 
ATOM      2  C1  UNL d   1      -2.295   3.427  -3.872  0.00  0.00    -0.074 A 
ATOM      3  C2  UNL d   1      -3.340   4.355  -3.832  0.00  0.00    -0.005 A 
ATOM      4  C3  UNL d   1      -3.197   5.602  -4.439  0.00  0.00     0.006 A 
ATOM      5  C4  UNL d   1      -2.008   5.934  -5.091  0.00  0.00    -0.005 A 
ATOM      6  C5  UNL d   1      -0.952   5.019  -5.140  0.00  0.00    -0.074 A 
ATOM      7  C6  UNL d   1       0.336   5.363  -5.828  0.00  0.00     0.077 C 
ATOM      8  C7  UNL d   1      -1.101   3.771  -4.522  0.00  0.00    -0.001 A 
ENDROOT
TORSDOF 0
ENDMDL
