MODEL 1
REMARK minimizedAffinity 6.93641901
REMARK minimizedRMSD -1
REMARK  0 active torsions:
REMARK  status: ('A' for Active; 'I' for Inactive)
ROOT
ATOM      1  C   UNL d   1       0.078  -0.683   3.251  0.00  0.00     0.077 C 
ATOM      2  C1  UNL d   1       0.690  -1.396   2.082  0.00  0.00    -0.074 A 
ATOM      3  C2  UNL d   1      -0.092  -1.797   0.994  0.00  0.00    -0.005 A 
ATOM      4  C3  UNL d   1       0.493  -2.451  -0.090  0.00  0.00     0.006 A 
ATOM      5  C4  UNL d   1       1.864  -2.712  -0.096  0.00  0.00    -0.005 A 
ATOM      6  C5  UNL d   1       2.662  -2.318   0.982  0.00  0.00    -0.074 A 
ATOM      7  C6  UNL d   1       4.139  -2.582   0.987  0.00  0.00     0.077 C 
ATOM      8  C7  UNL d   1       2.068  -1.655   2.065  0.00  0.00    -0.001 A 
ENDROOT
TORSDOF 0
ENDMDL
