MODEL 1
REMARK minimizedAffinity 8.28810787
REMARK minimizedRMSD -1
REMARK  0 active torsions:
REMARK  status: ('A' for Active; 'I' for Inactive)
ROOT
ATOM      1  C   UNL d   1       3.501  -2.411   2.485  0.00  0.00     0.077 C 
ATOM      2  C1  UNL d   1       4.285  -2.791   3.706  0.00  0.00    -0.074 A 
ATOM      3  C2  UNL d   1       5.166  -1.886   4.305  0.00  0.00    -0.005 A 
ATOM      4  C3  UNL d   1       5.882  -2.251   5.446  0.00  0.00     0.006 A 
ATOM      5  C4  UNL d   1       5.724  -3.523   5.997  0.00  0.00    -0.005 A 
ATOM      6  C5  UNL d   1       4.846  -4.441   5.412  0.00  0.00    -0.074 A 
ATOM      7  C6  UNL d   1       4.657  -5.809   5.998  0.00  0.00     0.077 C 
ATOM      8  C7  UNL d   1       4.125  -4.065   4.271  0.00  0.00    -0.001 A 
ENDROOT
TORSDOF 0
ENDMDL
