MODEL 1
REMARK minimizedAffinity 7.65389776
REMARK minimizedRMSD -1
REMARK  0 active torsions:
REMARK  status: ('A' for Active; 'I' for Inactive)
ROOT
ATOM      1  C   UNL d   1       0.270  -1.057   2.306  0.00  0.00     0.077 C 
ATOM      2  C1  UNL d   1       0.930  -2.143   1.511  0.00  0.00    -0.074 A 
ATOM      3  C2  UNL d   1       2.103  -1.895   0.790  0.00  0.00    -0.005 A 
ATOM      4  C3  UNL d   1       2.711  -2.918   0.063  0.00  0.00     0.006 A 
ATOM      5  C4  UNL d   1       2.154  -4.197   0.048  0.00  0.00    -0.005 A 
ATOM      6  C5  UNL d   1       0.982  -4.465   0.763  0.00  0.00    -0.074 A 
ATOM      7  C6  UNL d   1       0.376  -5.836   0.766  0.00  0.00     0.077 C 
ATOM      8  C7  UNL d   1       0.381  -3.433   1.497  0.00  0.00    -0.001 A 
ENDROOT
TORSDOF 0
ENDMDL
