MODEL 1
REMARK minimizedAffinity 12.6409855
REMARK minimizedRMSD -1
REMARK  0 active torsions:
REMARK  status: ('A' for Active; 'I' for Inactive)
ROOT
ATOM      1  C   UNL d   1      -1.456   0.004   3.413  0.00  0.00     0.077 C 
ATOM      2  C1  UNL d   1      -2.786   0.695   3.386  0.00  0.00    -0.074 A 
ATOM      3  C2  UNL d   1      -3.326   1.261   4.546  0.00  0.00    -0.005 A 
ATOM      4  C3  UNL d   1      -4.560   1.909   4.504  0.00  0.00     0.006 A 
ATOM      5  C4  UNL d   1      -5.266   1.998   3.303  0.00  0.00    -0.005 A 
ATOM      6  C5  UNL d   1      -4.742   1.439   2.134  0.00  0.00    -0.074 A 
ATOM      7  C6  UNL d   1      -5.483   1.535   0.833  0.00  0.00     0.077 C 
ATOM      8  C7  UNL d   1      -3.498   0.796   2.183  0.00  0.00    -0.001 A 
ENDROOT
TORSDOF 0
ENDMDL
