MODEL 1
REMARK minimizedAffinity 11.0371857
REMARK minimizedRMSD -1
REMARK  0 active torsions:
REMARK  status: ('A' for Active; 'I' for Inactive)
ROOT
ATOM      1  N1  IND d   1      -0.448   2.155   4.419  0.00  0.00    -0.196 N 
ATOM      2  C2  IND d   1       0.240   2.246   5.596  0.00  0.00     0.054 A 
ATOM      3  C3  IND d   1       1.153   1.253   5.685  0.00  0.00    -0.031 A 
ATOM      4  C4  IND d   1       1.758  -0.571   3.972  0.00  0.00     0.051 A 
ATOM      5  C5  IND d   1       1.377  -1.081   2.763  0.00  0.00    -0.031 A 
ATOM      6  C6  IND d   1       0.349  -0.526   2.028  0.00  0.00     0.015 A 
ATOM      7  C7  IND d   1      -0.331   0.572   2.471  0.00  0.00    -0.016 A 
ATOM      8  C8  IND d   1       0.048   1.089   3.702  0.00  0.00    -0.047 A 
ATOM      9  C9  IND d   1       1.062   0.504   4.472  0.00  0.00    -0.096 A 
ATOM     10  HN1 IND d   1      -1.085   2.677   4.168  0.00  0.00     0.298 HD
ENDROOT
TORSDOF 0
ENDMDL
