MODEL 1
REMARK minimizedAffinity 6.57635117
REMARK minimizedRMSD -1
REMARK  0 active torsions:
REMARK  status: ('A' for Active; 'I' for Inactive)
ROOT
ATOM      1  N1  IND d   1       0.375  -1.872   3.239  0.00  0.00    -0.196 N 
ATOM      2  C2  IND d   1       1.466  -1.217   3.738  0.00  0.00     0.054 A 
ATOM      3  C3  IND d   1       1.229   0.112   3.799  0.00  0.00    -0.031 A 
ATOM      4  C4  IND d   1      -0.913   1.420   3.226  0.00  0.00     0.051 A 
ATOM      5  C5  IND d   1      -2.164   1.260   2.698  0.00  0.00    -0.031 A 
ATOM      6  C6  IND d   1      -2.642   0.023   2.317  0.00  0.00     0.015 A 
ATOM      7  C7  IND d   1      -1.889  -1.107   2.463  0.00  0.00    -0.016 A 
ATOM      8  C8  IND d   1      -0.616  -0.948   2.992  0.00  0.00    -0.047 A 
ATOM      9  C9  IND d   1      -0.109   0.310   3.341  0.00  0.00    -0.096 A 
ATOM     10  HN1 IND d   1       0.318  -2.719   3.101  0.00  0.00     0.298 HD
ENDROOT
TORSDOF 0
ENDMDL
