MODEL 1
REMARK minimizedAffinity 12.590024
REMARK minimizedRMSD -1
REMARK  0 active torsions:
REMARK  status: ('A' for Active; 'I' for Inactive)
ROOT
ATOM      1  N1  IND d   1       3.314  -0.336   4.039  0.00  0.00    -0.196 N 
ATOM      2  C2  IND d   1       3.771   0.825   3.480  0.00  0.00     0.054 A 
ATOM      3  C3  IND d   1       2.869   1.308   2.596  0.00  0.00    -0.031 A 
ATOM      4  C4  IND d   1       0.533   0.412   1.989  0.00  0.00     0.051 A 
ATOM      5  C5  IND d   1      -0.309  -0.641   2.213  0.00  0.00    -0.031 A 
ATOM      6  C6  IND d   1       0.020  -1.666   3.077  0.00  0.00     0.015 A 
ATOM      7  C7  IND d   1       1.203  -1.670   3.760  0.00  0.00    -0.016 A 
ATOM      8  C8  IND d   1       2.063  -0.605   3.530  0.00  0.00    -0.047 A 
ATOM      9  C9  IND d   1       1.753   0.416   2.622  0.00  0.00    -0.096 A 
ATOM     10  HN1 IND d   1       3.737  -0.817   4.613  0.00  0.00     0.298 HD
ENDROOT
TORSDOF 0
ENDMDL
