MODEL 1
REMARK minimizedAffinity 13.251996
REMARK minimizedRMSD -1
REMARK  0 active torsions:
REMARK  status: ('A' for Active; 'I' for Inactive)
ROOT
ATOM      1  N1  IND d   1       3.843   1.695  -5.343  0.00  0.00    -0.196 N 
ATOM      2  C2  IND d   1       4.912   1.122  -5.974  0.00  0.00     0.054 A 
ATOM      3  C3  IND d   1       4.811  -0.225  -5.942  0.00  0.00    -0.031 A 
ATOM      4  C4  IND d   1       2.926  -1.702  -4.998  0.00  0.00     0.051 A 
ATOM      5  C5  IND d   1       1.757  -1.636  -4.293  0.00  0.00    -0.031 A 
ATOM      6  C6  IND d   1       1.211  -0.433  -3.897  0.00  0.00     0.015 A 
ATOM      7  C7  IND d   1       1.811   0.756  -4.202  0.00  0.00    -0.016 A 
ATOM      8  C8  IND d   1       3.002   0.693  -4.911  0.00  0.00    -0.047 A 
ATOM      9  C9  IND d   1       3.583  -0.527  -5.279  0.00  0.00    -0.096 A 
ATOM     10  HN1 IND d   1       3.718   2.538  -5.234  0.00  0.00     0.298 HD
ENDROOT
TORSDOF 0
ENDMDL
