MODEL 1
REMARK minimizedAffinity 13.7158575
REMARK minimizedRMSD -1
REMARK  0 active torsions:
REMARK  status: ('A' for Active; 'I' for Inactive)
ROOT
ATOM      1  N1  IND d   1       1.629  -4.120  -5.743  0.00  0.00    -0.196 N 
ATOM      2  C2  IND d   1       1.608  -2.765  -5.564  0.00  0.00     0.054 A 
ATOM      3  C3  IND d   1       0.334  -2.316  -5.520  0.00  0.00    -0.031 A 
ATOM      4  C4  IND d   1      -1.871  -3.640  -5.618  0.00  0.00     0.051 A 
ATOM      5  C5  IND d   1      -2.363  -4.900  -5.814  0.00  0.00    -0.031 A 
ATOM      6  C6  IND d   1      -1.533  -5.987  -5.996  0.00  0.00     0.015 A 
ATOM      7  C7  IND d   1      -0.173  -5.855  -5.979  0.00  0.00    -0.016 A 
ATOM      8  C8  IND d   1       0.330  -4.576  -5.788  0.00  0.00    -0.047 A 
ATOM      9  C9  IND d   1      -0.508  -3.463  -5.645  0.00  0.00    -0.096 A 
ATOM     10  HN1 IND d   1       2.335  -4.606  -5.816  0.00  0.00     0.298 HD
ENDROOT
TORSDOF 0
ENDMDL
