MODEL 1
REMARK minimizedAffinity 20.1627293
REMARK minimizedRMSD -1
REMARK  0 active torsions:
REMARK  status: ('A' for Active; 'I' for Inactive)
ROOT
ATOM      1  N1  IND d   1       0.386  -0.358   4.062  0.00  0.00    -0.196 N 
ATOM      2  C2  IND d   1      -0.072  -0.702   2.821  0.00  0.00     0.054 A 
ATOM      3  C3  IND d   1      -0.875   0.269   2.330  0.00  0.00    -0.031 A 
ATOM      4  C4  IND d   1      -1.493   2.550   3.349  0.00  0.00     0.051 A 
ATOM      5  C5  IND d   1      -1.346   3.299   4.483  0.00  0.00    -0.031 A 
ATOM      6  C6  IND d   1      -0.597   2.859   5.555  0.00  0.00     0.015 A 
ATOM      7  C7  IND d   1       0.045   1.654   5.529  0.00  0.00    -0.016 A 
ATOM      8  C8  IND d   1      -0.108   0.888   4.382  0.00  0.00    -0.047 A 
ATOM      9  C9  IND d   1      -0.901   1.310   3.307  0.00  0.00    -0.096 A 
ATOM     10  HN1 IND d   1       0.896  -0.839   4.560  0.00  0.00     0.298 HD
ENDROOT
TORSDOF 0
ENDMDL
