MODEL 1
REMARK minimizedAffinity 13.2521582
REMARK minimizedRMSD -1
REMARK  0 active torsions:
REMARK  status: ('A' for Active; 'I' for Inactive)
ROOT
ATOM      1  N1  IND d   1       0.541   0.101  -4.173  0.00  0.00    -0.196 N 
ATOM      2  C2  IND d   1       0.540  -0.345  -5.466  0.00  0.00     0.054 A 
ATOM      3  C3  IND d   1       0.107  -1.624  -5.522  0.00  0.00    -0.031 A 
ATOM      4  C4  IND d   1      -0.748  -3.146  -3.630  0.00  0.00     0.051 A 
ATOM      5  C5  IND d   1      -0.901  -3.195  -2.273  0.00  0.00    -0.031 A 
ATOM      6  C6  IND d   1      -0.578  -2.125  -1.464  0.00  0.00     0.015 A 
ATOM      7  C7  IND d   1      -0.098  -0.957  -1.985  0.00  0.00    -0.016 A 
ATOM      8  C8  IND d   1       0.066  -0.907  -3.362  0.00  0.00    -0.047 A 
ATOM      9  C9  IND d   1      -0.220  -2.004  -4.184  0.00  0.00    -0.096 A 
ATOM     10  HN1 IND d   1       0.795   0.879  -3.911  0.00  0.00     0.298 HD
ENDROOT
TORSDOF 0
ENDMDL
