MODEL 1
REMARK minimizedAffinity 13.4004583
REMARK minimizedRMSD -1
REMARK  0 active torsions:
REMARK  status: ('A' for Active; 'I' for Inactive)
ROOT
ATOM      1  N1  IND d   1      -2.451   0.309   2.547  0.00  0.00    -0.196 N 
ATOM      2  C2  IND d   1      -3.223  -0.765   2.893  0.00  0.00     0.054 A 
ATOM      3  C3  IND d   1      -2.443  -1.815   3.233  0.00  0.00    -0.031 A 
ATOM      4  C4  IND d   1       0.122  -1.963   3.390  0.00  0.00     0.051 A 
ATOM      5  C5  IND d   1       1.260  -1.249   3.137  0.00  0.00    -0.031 A 
ATOM      6  C6  IND d   1       1.218   0.048   2.668  0.00  0.00     0.015 A 
ATOM      7  C7  IND d   1       0.031   0.686   2.444  0.00  0.00    -0.016 A 
ATOM      8  C8  IND d   1      -1.126  -0.038   2.693  0.00  0.00    -0.047 A 
ATOM      9  C9  IND d   1      -1.090  -1.369   3.129  0.00  0.00    -0.096 A 
ATOM     10  HN1 IND d   1      -2.744   1.073   2.283  0.00  0.00     0.298 HD
ENDROOT
TORSDOF 0
ENDMDL
