MODEL 1
REMARK minimizedAffinity 15.5984783
REMARK minimizedRMSD -1
REMARK  0 active torsions:
REMARK  status: ('A' for Active; 'I' for Inactive)
ROOT
ATOM      1  N1  IND d   1       0.678  -1.933   2.364  0.00  0.00    -0.196 N 
ATOM      2  C2  IND d   1       1.659  -1.010   2.600  0.00  0.00     0.054 A 
ATOM      3  C3  IND d   1       1.122   0.222   2.741  0.00  0.00    -0.031 A 
ATOM      4  C4  IND d   1      -1.351   0.940   2.724  0.00  0.00     0.051 A 
ATOM      5  C5  IND d   1      -2.611   0.458   2.508  0.00  0.00    -0.031 A 
ATOM      6  C6  IND d   1      -2.844  -0.874   2.230  0.00  0.00     0.015 A 
ATOM      7  C7  IND d   1      -1.823  -1.778   2.169  0.00  0.00    -0.016 A 
ATOM      8  C8  IND d   1      -0.541  -1.291   2.381  0.00  0.00    -0.047 A 
ATOM      9  C9  IND d   1      -0.294   0.067   2.621  0.00  0.00    -0.096 A 
ATOM     10  HN1 IND d   1       0.801  -2.773   2.228  0.00  0.00     0.298 HD
ENDROOT
TORSDOF 0
ENDMDL
