MODEL 1
REMARK minimizedAffinity 9.80804157
REMARK minimizedRMSD -1
REMARK  0 active torsions:
REMARK  status: ('A' for Active; 'I' for Inactive)
ROOT
ATOM      1  N1  IND d   1       1.384   1.259   5.813  0.00  0.00    -0.196 N 
ATOM      2  C2  IND d   1       0.434   2.239   5.907  0.00  0.00     0.054 A 
ATOM      3  C3  IND d   1      -0.414   2.173   4.856  0.00  0.00    -0.031 A 
ATOM      4  C4  IND d   1      -0.493   0.477   2.921  0.00  0.00     0.051 A 
ATOM      5  C5  IND d   1       0.190  -0.579   2.386  0.00  0.00    -0.031 A 
ATOM      6  C6  IND d   1       1.327  -1.089   2.980  0.00  0.00     0.015 A 
ATOM      7  C7  IND d   1       1.819  -0.566   4.142  0.00  0.00    -0.016 A 
ATOM      8  C8  IND d   1       1.132   0.512   4.684  0.00  0.00    -0.047 A 
ATOM      9  C9  IND d   1       0.003   1.060   4.063  0.00  0.00    -0.096 A 
ATOM     10  HN1 IND d   1       2.029   1.132   6.367  0.00  0.00     0.298 HD
ENDROOT
TORSDOF 0
ENDMDL
