MODEL 1
REMARK minimizedAffinity 11.5219078
REMARK minimizedRMSD -1
REMARK  0 active torsions:
REMARK  status: ('A' for Active; 'I' for Inactive)
ROOT
ATOM      1  N1  IND d   1       0.613  -3.050   4.411  0.00  0.00    -0.196 N 
ATOM      2  C2  IND d   1       1.478  -3.118   5.467  0.00  0.00     0.054 A 
ATOM      3  C3  IND d   1       2.254  -2.012   5.511  0.00  0.00    -0.031 A 
ATOM      4  C4  IND d   1       2.207   0.080   4.011  0.00  0.00     0.051 A 
ATOM      5  C5  IND d   1       1.614   0.588   2.890  0.00  0.00    -0.031 A 
ATOM      6  C6  IND d   1       0.635  -0.103   2.206  0.00  0.00     0.015 A 
ATOM      7  C7  IND d   1       0.203  -1.329   2.626  0.00  0.00    -0.016 A 
ATOM      8  C8  IND d   1       0.808  -1.851   3.760  0.00  0.00    -0.047 A 
ATOM      9  C9  IND d   1       1.832  -1.173   4.434  0.00  0.00    -0.096 A 
ATOM     10  HN1 IND d   1       0.043  -3.655   4.189  0.00  0.00     0.298 HD
ENDROOT
TORSDOF 0
ENDMDL
