MODEL 1
REMARK minimizedAffinity 11.2416973
REMARK minimizedRMSD -1
REMARK  1 active torsions:
REMARK  status: ('A' for Active; 'I' for Inactive)
REMARK    1  A    between atoms: C1_2  and  C2_3 
ROOT
ATOM      1  C2  UNL d   1       3.065  -5.260  -2.922  0.00  0.00    -0.081 A 
ATOM      2  C3  UNL d   1       2.766  -4.989  -4.263  0.00  0.00     0.006 A 
ATOM      3  C4  UNL d   1       3.718  -5.216  -5.261  0.00  0.00     0.002 A 
ATOM      4  C5  UNL d   1       4.980  -5.724  -4.935  0.00  0.00    -0.080 A 
ATOM      5  C6  UNL d   1       6.000  -6.000  -6.000  0.00  0.00     0.076 C 
ATOM      6  C7  UNL d   1       5.285  -5.978  -3.594  0.00  0.00     0.002 A 
ATOM      7  C8  UNL d   1       4.334  -5.751  -2.596  0.00  0.00     0.006 A 
ENDROOT
BRANCH   1   8
ATOM      8  C1  UNL d   1       2.020  -5.079  -1.852  0.00  0.00     0.054 C 
ATOM      9  C   UNL d   1       2.290  -5.979  -0.655  0.00  0.00     0.018 C 
ENDBRANCH   1   8
TORSDOF 1
ENDMDL
