MODEL 1
REMARK minimizedAffinity 2.39920139
REMARK minimizedRMSD -1
REMARK  1 active torsions:
REMARK  status: ('A' for Active; 'I' for Inactive)
REMARK    1  A    between atoms: C1_2  and  C2_3 
ROOT
ATOM      1  C2  UNL d   1       4.640  -5.209  -3.701  0.00  0.00    -0.081 A 
ATOM      2  C3  UNL d   1       3.376  -5.031  -3.126  0.00  0.00     0.006 A 
ATOM      3  C4  UNL d   1       2.219  -5.273  -3.870  0.00  0.00     0.002 A 
ATOM      4  C5  UNL d   1       2.306  -5.705  -5.198  0.00  0.00    -0.080 A 
ATOM      5  C6  UNL d   1       1.072  -5.998  -5.998  0.00  0.00     0.076 C 
ATOM      6  C7  UNL d   1       3.569  -5.866  -5.778  0.00  0.00     0.002 A 
ATOM      7  C8  UNL d   1       4.726  -5.624  -5.035  0.00  0.00     0.006 A 
ENDROOT
BRANCH   1   8
ATOM      8  C1  UNL d   1       5.890  -5.011  -2.882  0.00  0.00     0.054 C 
ATOM      9  C   UNL d   1       5.953  -5.996  -1.723  0.00  0.00     0.018 C 
ENDBRANCH   1   8
TORSDOF 1
ENDMDL
