MODEL 1
REMARK minimizedAffinity 5.36123657
REMARK minimizedRMSD -1
REMARK  1 active torsions:
REMARK  status: ('A' for Active; 'I' for Inactive)
REMARK    1  A    between atoms: C1_2  and  C2_3 
ROOT
ATOM      1  C2  UNL d   1       3.857   2.994   0.338  0.00  0.00    -0.081 A 
ATOM      2  C3  UNL d   1       3.437   1.671   0.521  0.00  0.00     0.006 A 
ATOM      3  C4  UNL d   1       2.078   1.370   0.643  0.00  0.00     0.002 A 
ATOM      4  C5  UNL d   1       1.118   2.385   0.576  0.00  0.00    -0.080 A 
ATOM      5  C6  UNL d   1      -0.346   2.072   0.674  0.00  0.00     0.076 C 
ATOM      6  C7  UNL d   1       1.539   3.709   0.410  0.00  0.00     0.002 A 
ATOM      7  C8  UNL d   1       2.897   4.011   0.289  0.00  0.00     0.006 A 
ENDROOT
BRANCH   1   8
ATOM      8  C1  UNL d   1       5.317   3.314   0.141  0.00  0.00     0.054 C 
ATOM      9  C   UNL d   1       5.660   3.453  -1.335  0.00  0.00     0.018 C 
ENDBRANCH   1   8
TORSDOF 1
ENDMDL
