MODEL 1
REMARK minimizedAffinity 5.03152037
REMARK minimizedRMSD -1
REMARK  1 active torsions:
REMARK  status: ('A' for Active; 'I' for Inactive)
REMARK    1  A    between atoms: C1_2  and  C2_3 
ROOT
ATOM      1  C2  UNL d   1       4.043  -5.583  -4.385  0.00  0.00    -0.081 A 
ATOM      2  C3  UNL d   1       4.991  -5.870  -3.396  0.00  0.00     0.006 A 
ATOM      3  C4  UNL d   1       4.609  -5.969  -2.056  0.00  0.00     0.002 A 
ATOM      4  C5  UNL d   1       3.272  -5.792  -1.684  0.00  0.00    -0.080 A 
ATOM      5  C6  UNL d   1       2.844  -5.926  -0.253  0.00  0.00     0.076 C 
ATOM      6  C7  UNL d   1       2.327  -5.488  -2.670  0.00  0.00     0.002 A 
ATOM      7  C8  UNL d   1       2.709  -5.388  -4.010  0.00  0.00     0.006 A 
ENDROOT
BRANCH   1   8
ATOM      8  C1  UNL d   1       4.440  -5.539  -5.839  0.00  0.00     0.054 C 
ATOM      9  C   UNL d   1       5.953  -5.567  -5.999  0.00  0.00     0.018 C 
ENDBRANCH   1   8
TORSDOF 1
ENDMDL
