MODEL 1
REMARK minimizedAffinity 5.91524172
REMARK minimizedRMSD -1
REMARK  1 active torsions:
REMARK  status: ('A' for Active; 'I' for Inactive)
REMARK    1  A    between atoms: C1_2  and  C2_3 
ROOT
ATOM      1  C2  UNL d   1       4.027  -5.696  -4.706  0.00  0.00    -0.081 A 
ATOM      2  C3  UNL d   1       3.174  -5.965  -5.783  0.00  0.00     0.006 A 
ATOM      3  C4  UNL d   1       1.790  -5.836  -5.639  0.00  0.00     0.002 A 
ATOM      4  C5  UNL d   1       1.238  -5.428  -4.420  0.00  0.00    -0.080 A 
ATOM      5  C6  UNL d   1      -0.243  -5.255  -4.261  0.00  0.00     0.076 C 
ATOM      6  C7  UNL d   1       2.090  -5.176  -3.339  0.00  0.00     0.002 A 
ATOM      7  C8  UNL d   1       3.473  -5.306  -3.482  0.00  0.00     0.006 A 
ENDROOT
BRANCH   1   8
ATOM      8  C1  UNL d   1       5.523  -5.773  -4.876  0.00  0.00     0.054 C 
ATOM      9  C   UNL d   1       5.999  -4.862  -5.999  0.00  0.00     0.018 C 
ENDBRANCH   1   8
TORSDOF 1
ENDMDL
