MODEL 1
REMARK minimizedAffinity -0.34159559
REMARK minimizedRMSD -1
REMARK  1 active torsions:
REMARK  status: ('A' for Active; 'I' for Inactive)
REMARK    1  A    between atoms: C1_2  and  C2_3 
ROOT
ATOM      1  C2  UNL d   1      -4.343   3.720  -5.425  0.00  0.00    -0.081 A 
ATOM      2  C3  UNL d   1      -3.710   4.506  -4.453  0.00  0.00     0.006 A 
ATOM      3  C4  UNL d   1      -2.394   4.237  -4.072  0.00  0.00     0.002 A 
ATOM      4  C5  UNL d   1      -1.685   3.183  -4.660  0.00  0.00    -0.080 A 
ATOM      5  C6  UNL d   1      -0.262   2.902  -4.281  0.00  0.00     0.076 C 
ATOM      6  C7  UNL d   1      -2.323   2.387  -5.618  0.00  0.00     0.002 A 
ATOM      7  C8  UNL d   1      -3.639   2.656  -5.999  0.00  0.00     0.006 A 
ENDROOT
BRANCH   1   8
ATOM      8  C1  UNL d   1      -5.740   4.048  -5.885  0.00  0.00     0.054 C 
ATOM      9  C   UNL d   1      -5.946   5.552  -5.999  0.00  0.00     0.018 C 
ENDBRANCH   1   8
TORSDOF 1
ENDMDL
