MODEL 1
REMARK minimizedAffinity 4.43485451
REMARK minimizedRMSD -1
REMARK  1 active torsions:
REMARK  status: ('A' for Active; 'I' for Inactive)
REMARK    1  A    between atoms: C1_2  and  C2_3 
ROOT
ATOM      1  C2  UNL d   1       2.876  -5.541  -2.893  0.00  0.00    -0.081 A 
ATOM      2  C3  UNL d   1       4.233  -5.380  -2.586  0.00  0.00     0.006 A 
ATOM      3  C4  UNL d   1       5.155  -5.077  -3.590  0.00  0.00     0.002 A 
ATOM      4  C5  UNL d   1       4.736  -4.921  -4.916  0.00  0.00    -0.080 A 
ATOM      5  C6  UNL d   1       5.711  -4.566  -5.999  0.00  0.00     0.076 C 
ATOM      6  C7  UNL d   1       3.383  -5.099  -5.225  0.00  0.00     0.002 A 
ATOM      7  C8  UNL d   1       2.460  -5.403  -4.222  0.00  0.00     0.006 A 
ENDROOT
BRANCH   1   8
ATOM      8  C1  UNL d   1       1.870  -5.804  -1.802  0.00  0.00     0.054 C 
ATOM      9  C   UNL d   1       2.537  -5.864  -0.436  0.00  0.00     0.018 C 
ENDBRANCH   1   8
TORSDOF 1
ENDMDL
