MODEL 1
REMARK minimizedAffinity 8.82670403
REMARK minimizedRMSD -1
REMARK  1 active torsions:
REMARK  status: ('A' for Active; 'I' for Inactive)
REMARK    1  A    between atoms: C1_2  and  C2_3 
ROOT
ATOM      1  C2  UNL d   1       4.418  -5.446  -4.465  0.00  0.00    -0.081 A 
ATOM      2  C3  UNL d   1       3.042  -5.279  -4.665  0.00  0.00     0.006 A 
ATOM      3  C4  UNL d   1       2.146  -5.461  -3.610  0.00  0.00     0.002 A 
ATOM      4  C5  UNL d   1       2.610  -5.805  -2.335  0.00  0.00    -0.080 A 
ATOM      5  C6  UNL d   1       1.661  -5.973  -1.186  0.00  0.00     0.076 C 
ATOM      6  C7  UNL d   1       3.983  -5.988  -2.140  0.00  0.00     0.002 A 
ATOM      7  C8  UNL d   1       4.880  -5.808  -3.195  0.00  0.00     0.006 A 
ENDROOT
BRANCH   1   8
ATOM      8  C1  UNL d   1       5.392  -5.188  -5.586  0.00  0.00     0.054 C 
ATOM      9  C   UNL d   1       5.433  -3.711  -5.954  0.00  0.00     0.018 C 
ENDBRANCH   1   8
TORSDOF 1
ENDMDL
