MODEL 1
REMARK minimizedAffinity 2.66576672
REMARK minimizedRMSD -1
REMARK  1 active torsions:
REMARK  status: ('A' for Active; 'I' for Inactive)
REMARK    1  A    between atoms: C1_2  and  C2_3 
ROOT
ATOM      1  C2  UNL d   1      -4.379   3.492  -5.700  0.00  0.00    -0.081 A 
ATOM      2  C3  UNL d   1      -4.065   2.270  -5.094  0.00  0.00     0.006 A 
ATOM      3  C4  UNL d   1      -2.740   1.953  -4.783  0.00  0.00     0.002 A 
ATOM      4  C5  UNL d   1      -1.710   2.856  -5.065  0.00  0.00    -0.080 A 
ATOM      5  C6  UNL d   1      -0.287   2.541  -4.709  0.00  0.00     0.076 C 
ATOM      6  C7  UNL d   1      -2.021   4.070  -5.686  0.00  0.00     0.002 A 
ATOM      7  C8  UNL d   1      -3.345   4.387  -5.998  0.00  0.00     0.006 A 
ENDROOT
BRANCH   1   8
ATOM      8  C1  UNL d   1      -5.813   3.864  -5.978  0.00  0.00     0.054 C 
ATOM      9  C   UNL d   1      -6.000   5.374  -5.996  0.00  0.00     0.018 C 
ENDBRANCH   1   8
TORSDOF 1
ENDMDL
