MODEL 1
REMARK minimizedAffinity -0.864219785
REMARK minimizedRMSD -1
REMARK  1 active torsions:
REMARK  status: ('A' for Active; 'I' for Inactive)
REMARK    1  A    between atoms: C1_2  and  C2_3 
ROOT
ATOM      1  C2  UNL d   1       4.404  -5.765  -3.917  0.00  0.00    -0.081 A 
ATOM      2  C3  UNL d   1       3.367  -5.856  -4.854  0.00  0.00     0.006 A 
ATOM      3  C4  UNL d   1       2.049  -5.584  -4.481  0.00  0.00     0.002 A 
ATOM      4  C5  UNL d   1       1.746  -5.209  -3.168  0.00  0.00    -0.080 A 
ATOM      5  C6  UNL d   1       0.339  -4.884  -2.761  0.00  0.00     0.076 C 
ATOM      6  C7  UNL d   1       2.779  -5.134  -2.227  0.00  0.00     0.002 A 
ATOM      7  C8  UNL d   1       4.097  -5.407  -2.600  0.00  0.00     0.006 A 
ENDROOT
BRANCH   1   8
ATOM      8  C1  UNL d   1       5.834  -5.995  -4.332  0.00  0.00     0.054 C 
ATOM      9  C   UNL d   1       5.996  -5.893  -5.842  0.00  0.00     0.018 C 
ENDBRANCH   1   8
TORSDOF 1
ENDMDL
