MODEL 1
REMARK minimizedAffinity 0.259733647
REMARK minimizedRMSD -1
REMARK  1 active torsions:
REMARK  status: ('A' for Active; 'I' for Inactive)
REMARK    1  A    between atoms: C1_2  and  C2_3 
ROOT
ATOM      1  C2  UNL d   1       1.072   2.650   1.137  0.00  0.00    -0.081 A 
ATOM      2  C3  UNL d   1       0.596   3.866   0.631  0.00  0.00     0.006 A 
ATOM      3  C4  UNL d   1      -0.755   4.020   0.314  0.00  0.00     0.002 A 
ATOM      4  C5  UNL d   1      -1.654   2.965   0.504  0.00  0.00    -0.080 A 
ATOM      5  C6  UNL d   1      -3.113   3.127   0.195  0.00  0.00     0.076 C 
ATOM      6  C7  UNL d   1      -1.175   1.745   0.992  0.00  0.00     0.002 A 
ATOM      7  C8  UNL d   1       0.176   1.589   1.309  0.00  0.00     0.006 A 
ENDROOT
BRANCH   1   8
ATOM      8  C1  UNL d   1       2.517   2.501   1.541  0.00  0.00     0.054 C 
ATOM      9  C   UNL d   1       3.183   1.350   0.800  0.00  0.00     0.018 C 
ENDBRANCH   1   8
TORSDOF 1
ENDMDL
