MODEL 1
REMARK minimizedAffinity -3.46642208
REMARK minimizedRMSD -1
REMARK  1 active torsions:
REMARK  status: ('A' for Active; 'I' for Inactive)
REMARK    1  A    between atoms: C1_2  and  C2_3 
ROOT
ATOM      1  C2  UNL d   1      -2.707   2.229  -5.492  0.00  0.00    -0.081 A 
ATOM      2  C3  UNL d   1      -1.870   3.236  -5.988  0.00  0.00     0.006 A 
ATOM      3  C4  UNL d   1      -0.492   3.189  -5.759  0.00  0.00     0.002 A 
ATOM      4  C5  UNL d   1       0.071   2.130  -5.039  0.00  0.00    -0.080 A 
ATOM      5  C6  UNL d   1       1.552   2.052  -4.812  0.00  0.00     0.076 C 
ATOM      6  C7  UNL d   1      -0.767   1.133  -4.528  0.00  0.00     0.002 A 
ATOM      7  C8  UNL d   1      -2.144   1.181  -4.756  0.00  0.00     0.006 A 
ENDROOT
BRANCH   1   8
ATOM      8  C1  UNL d   1      -4.184   2.244  -5.793  0.00  0.00     0.054 C 
ATOM      9  C   UNL d   1      -5.007   2.007  -4.534  0.00  0.00     0.018 C 
ENDBRANCH   1   8
TORSDOF 1
ENDMDL
