MODEL 1
REMARK minimizedAffinity 2.55310917
REMARK minimizedRMSD -1
REMARK  1 active torsions:
REMARK  status: ('A' for Active; 'I' for Inactive)
REMARK    1  A    between atoms: C1_2  and  C2_3 
ROOT
ATOM      1  C2  UNL d   1       0.728   2.859   1.550  0.00  0.00    -0.081 A 
ATOM      2  C3  UNL d   1       2.058   3.111   1.906  0.00  0.00     0.006 A 
ATOM      3  C4  UNL d   1       3.100   2.401   1.304  0.00  0.00     0.002 A 
ATOM      4  C5  UNL d   1       2.829   1.433   0.331  0.00  0.00    -0.080 A 
ATOM      5  C6  UNL d   1       3.940   0.686  -0.345  0.00  0.00     0.076 C 
ATOM      6  C7  UNL d   1       1.499   1.169  -0.013  0.00  0.00     0.002 A 
ATOM      7  C8  UNL d   1       0.457   1.878   0.590  0.00  0.00     0.006 A 
ENDROOT
BRANCH   1   8
ATOM      8  C1  UNL d   1      -0.393   3.668   2.150  0.00  0.00     0.054 C 
ATOM      9  C   UNL d   1      -0.265   3.753   3.665  0.00  0.00     0.018 C 
ENDBRANCH   1   8
TORSDOF 1
ENDMDL
