MODEL 1
REMARK minimizedAffinity -2.98270774
REMARK minimizedRMSD -1
REMARK  0 active torsions:
REMARK  status: ('A' for Active; 'I' for Inactive)
ROOT
ATOM      1  C1  BNZ d   1      -1.003   0.532   0.389  0.00  0.00     0.000 A 
ATOM      2  C2  BNZ d   1      -0.000   1.407   0.715  0.00  0.00     0.000 A 
ATOM      3  C3  BNZ d   1       1.031   1.643  -0.150  0.00  0.00     0.000 A 
ATOM      4  C4  BNZ d   1       1.081   0.975  -1.321  0.00  0.00     0.000 A 
ATOM      5  C5  BNZ d   1       0.083   0.083  -1.660  0.00  0.00     0.000 A 
ATOM      6  C6  BNZ d   1      -0.974  -0.123  -0.804  0.00  0.00     0.000 A 
ENDROOT
TORSDOF 0
ENDMDL
