MODEL 1
REMARK minimizedAffinity -2.04637551
REMARK minimizedRMSD -1
REMARK  0 active torsions:
REMARK  status: ('A' for Active; 'I' for Inactive)
ROOT
ATOM      1  C1  BNZ d   1      -2.720   2.049  -3.629  0.00  0.00     0.000 A 
ATOM      2  C2  BNZ d   1      -3.155   3.298  -3.986  0.00  0.00     0.000 A 
ATOM      3  C3  BNZ d   1      -3.566   4.193  -3.038  0.00  0.00     0.000 A 
ATOM      4  C4  BNZ d   1      -3.581   3.825  -1.741  0.00  0.00     0.000 A 
ATOM      5  C5  BNZ d   1      -3.155   2.567  -1.366  0.00  0.00     0.000 A 
ATOM      6  C6  BNZ d   1      -2.705   1.682  -2.319  0.00  0.00     0.000 A 
ENDROOT
TORSDOF 0
ENDMDL
