MODEL 1
REMARK minimizedAffinity -5.30215502
REMARK minimizedRMSD -1
REMARK  0 active torsions:
REMARK  status: ('A' for Active; 'I' for Inactive)
ROOT
ATOM      1  C1  BNZ d   1       2.660   0.550   0.914  0.00  0.00     0.000 A 
ATOM      2  C2  BNZ d   1       3.134  -0.517   1.629  0.00  0.00     0.000 A 
ATOM      3  C3  BNZ d   1       2.555  -1.750   1.513  0.00  0.00     0.000 A 
ATOM      4  C4  BNZ d   1       1.479  -1.904   0.714  0.00  0.00     0.000 A 
ATOM      5  C5  BNZ d   1       0.984  -0.836  -0.007  0.00  0.00     0.000 A 
ATOM      6  C6  BNZ d   1       1.594   0.395   0.083  0.00  0.00     0.000 A 
ENDROOT
TORSDOF 0
ENDMDL
