MODEL 1
REMARK minimizedAffinity -4.63971472
REMARK minimizedRMSD -1
REMARK  0 active torsions:
REMARK  status: ('A' for Active; 'I' for Inactive)
ROOT
ATOM      1  C1  BNZ d   1       1.130  -1.677   0.943  0.00  0.00     0.000 A 
ATOM      2  C2  BNZ d   1       0.097  -0.882   0.522  0.00  0.00     0.000 A 
ATOM      3  C3  BNZ d   1       0.290   0.451   0.292  0.00  0.00     0.000 A 
ATOM      4  C4  BNZ d   1       1.503   0.995   0.521  0.00  0.00     0.000 A 
ATOM      5  C5  BNZ d   1       2.551   0.209   0.955  0.00  0.00     0.000 A 
ATOM      6  C6  BNZ d   1       2.363  -1.141   1.148  0.00  0.00     0.000 A 
ENDROOT
TORSDOF 0
ENDMDL
