MODEL 1
REMARK minimizedAffinity -2.79375768
REMARK minimizedRMSD -1
REMARK  0 active torsions:
REMARK  status: ('A' for Active; 'I' for Inactive)
ROOT
ATOM      1  C1  BNZ d   1       2.308   0.399   1.161  0.00  0.00     0.000 A 
ATOM      2  C2  BNZ d   1       1.200   0.691   0.411  0.00  0.00     0.000 A 
ATOM      3  C3  BNZ d   1       0.107  -0.130   0.430  0.00  0.00     0.000 A 
ATOM      4  C4  BNZ d   1       0.139  -1.260   1.165  0.00  0.00     0.000 A 
ATOM      5  C5  BNZ d   1       1.253  -1.573   1.918  0.00  0.00     0.000 A 
ATOM      6  C6  BNZ d   1       2.336  -0.725   1.927  0.00  0.00     0.000 A 
ENDROOT
TORSDOF 0
ENDMDL
