MODEL 1
REMARK minimizedAffinity -3.42379928
REMARK minimizedRMSD -1
REMARK  0 active torsions:
REMARK  status: ('A' for Active; 'I' for Inactive)
ROOT
ATOM      1  C1  BNZ d   1       1.525   1.618   2.023  0.00  0.00     0.000 A 
ATOM      2  C2  BNZ d   1       0.324   1.951   2.590  0.00  0.00     0.000 A 
ATOM      3  C3  BNZ d   1      -0.815   1.265   2.272  0.00  0.00     0.000 A 
ATOM      4  C4  BNZ d   1      -0.759   0.274   1.359  0.00  0.00     0.000 A 
ATOM      5  C5  BNZ d   1       0.443  -0.068   0.772  0.00  0.00     0.000 A 
ATOM      6  C6  BNZ d   1       1.594   0.599   1.123  0.00  0.00     0.000 A 
ENDROOT
TORSDOF 0
ENDMDL
