MODEL 1
REMARK minimizedAffinity -2.84851241
REMARK minimizedRMSD -1
REMARK  0 active torsions:
REMARK  status: ('A' for Active; 'I' for Inactive)
ROOT
ATOM      1  C1  BNZ d   1       1.089  -0.021   1.548  0.00  0.00     0.000 A 
ATOM      2  C2  BNZ d   1      -0.066  -0.666   1.195  0.00  0.00     0.000 A 
ATOM      3  C3  BNZ d   1      -0.961  -0.084   0.342  0.00  0.00     0.000 A 
ATOM      4  C4  BNZ d   1      -0.720   1.159  -0.125  0.00  0.00     0.000 A 
ATOM      5  C5  BNZ d   1       0.435   1.826   0.229  0.00  0.00     0.000 A 
ATOM      6  C6  BNZ d   1       1.352   1.221   1.057  0.00  0.00     0.000 A 
ENDROOT
TORSDOF 0
ENDMDL
