MODEL 1
REMARK minimizedAffinity -5.15614128
REMARK minimizedRMSD -1
REMARK  0 active torsions:
REMARK  status: ('A' for Active; 'I' for Inactive)
ROOT
ATOM      1  C1  BNZ d   1       1.771  -0.118   1.588  0.00  0.00     0.000 A 
ATOM      2  C2  BNZ d   1       1.518   0.012   2.928  0.00  0.00     0.000 A 
ATOM      3  C3  BNZ d   1       0.449   0.739   3.371  0.00  0.00     0.000 A 
ATOM      4  C4  BNZ d   1      -0.342   1.368   2.478  0.00  0.00     0.000 A 
ATOM      5  C5  BNZ d   1      -0.095   1.254   1.124  0.00  0.00     0.000 A 
ATOM      6  C6  BNZ d   1       0.960   0.489   0.680  0.00  0.00     0.000 A 
ENDROOT
TORSDOF 0
ENDMDL
