MODEL 1
REMARK minimizedAffinity -4.23018122
REMARK minimizedRMSD -1
REMARK  0 active torsions:
REMARK  status: ('A' for Active; 'I' for Inactive)
ROOT
ATOM      1  C1  BNZ d   1       1.192  -0.727   0.178  0.00  0.00     0.000 A 
ATOM      2  C2  BNZ d   1      -0.042  -0.190   0.433  0.00  0.00     0.000 A 
ATOM      3  C3  BNZ d   1      -0.171   0.944   1.185  0.00  0.00     0.000 A 
ATOM      4  C4  BNZ d   1       0.930   1.516   1.715  0.00  0.00     0.000 A 
ATOM      5  C5  BNZ d   1       2.180   0.981   1.476  0.00  0.00     0.000 A 
ATOM      6  C6  BNZ d   1       2.309  -0.138   0.685  0.00  0.00     0.000 A 
ENDROOT
TORSDOF 0
ENDMDL
