MODEL 1
REMARK minimizedAffinity -2.77232647
REMARK minimizedRMSD -1
REMARK  0 active torsions:
REMARK  status: ('A' for Active; 'I' for Inactive)
ROOT
ATOM      1  C1  BNZ d   1       0.447   1.251   0.865  0.00  0.00     0.000 A 
ATOM      2  C2  BNZ d   1       0.246   1.448   2.205  0.00  0.00     0.000 A 
ATOM      3  C3  BNZ d   1      -0.819   0.878   2.845  0.00  0.00     0.000 A 
ATOM      4  C4  BNZ d   1      -1.702   0.145   2.137  0.00  0.00     0.000 A 
ATOM      5  C5  BNZ d   1      -1.519  -0.055   0.784  0.00  0.00     0.000 A 
ATOM      6  C6  BNZ d   1      -0.425   0.488   0.151  0.00  0.00     0.000 A 
ENDROOT
TORSDOF 0
ENDMDL
