MODEL 1
REMARK minimizedAffinity -3.5345695
REMARK minimizedRMSD -1
REMARK  0 active torsions:
REMARK  status: ('A' for Active; 'I' for Inactive)
ROOT
ATOM      1  C1  BNZ d   1      -0.659   0.763   1.724  0.00  0.00     0.000 A 
ATOM      2  C2  BNZ d   1       0.121  -0.261   1.257  0.00  0.00     0.000 A 
ATOM      3  C3  BNZ d   1       1.476  -0.115   1.150  0.00  0.00     0.000 A 
ATOM      4  C4  BNZ d   1       2.043   1.066   1.470  0.00  0.00     0.000 A 
ATOM      5  C5  BNZ d   1       1.269   2.111   1.933  0.00  0.00     0.000 A 
ATOM      6  C6  BNZ d   1      -0.090   1.948   2.077  0.00  0.00     0.000 A 
ENDROOT
TORSDOF 0
ENDMDL
