MODEL 1
REMARK minimizedAffinity -1.35291255
REMARK minimizedRMSD -1
REMARK  0 active torsions:
REMARK  status: ('A' for Active; 'I' for Inactive)
ROOT
ATOM      1  C1  BNZ d   1      -1.429   0.105   0.987  0.00  0.00     0.000 A 
ATOM      2  C2  BNZ d   1      -1.709   0.116   2.327  0.00  0.00     0.000 A 
ATOM      3  C3  BNZ d   1      -0.948   0.848   3.195  0.00  0.00     0.000 A 
ATOM      4  C4  BNZ d   1       0.114   1.536   2.728  0.00  0.00     0.000 A 
ATOM      5  C5  BNZ d   1       0.415   1.527   1.381  0.00  0.00     0.000 A 
ATOM      6  C6  BNZ d   1      -0.376   0.820   0.505  0.00  0.00     0.000 A 
ENDROOT
TORSDOF 0
ENDMDL
