MODEL 1
REMARK minimizedAffinity -2.25662422
REMARK minimizedRMSD -1
REMARK  0 active torsions:
REMARK  status: ('A' for Active; 'I' for Inactive)
ROOT
ATOM      1  C1  BNZ d   1      -1.529   0.208   2.301  0.00  0.00     0.000 A 
ATOM      2  C2  BNZ d   1      -0.659   1.040   2.953  0.00  0.00     0.000 A 
ATOM      3  C3  BNZ d   1       0.417   1.576   2.303  0.00  0.00     0.000 A 
ATOM      4  C4  BNZ d   1       0.644   1.249   1.014  0.00  0.00     0.000 A 
ATOM      5  C5  BNZ d   1      -0.219   0.404   0.345  0.00  0.00     0.000 A 
ATOM      6  C6  BNZ d   1      -1.323  -0.103   0.992  0.00  0.00     0.000 A 
ENDROOT
TORSDOF 0
ENDMDL
