MODEL 1
REMARK minimizedAffinity -3.28268218
REMARK minimizedRMSD -1
REMARK  0 active torsions:
REMARK  status: ('A' for Active; 'I' for Inactive)
ROOT
ATOM      1  N1  IND d   1      -0.392   1.116   0.161  0.00  0.00    -0.196 N 
ATOM      2  C2  IND d   1      -1.476   0.508  -0.407  0.00  0.00     0.054 A 
ATOM      3  C3  IND d   1      -1.179  -0.769  -0.739  0.00  0.00    -0.031 A 
ATOM      4  C4  IND d   1       0.991  -2.097  -0.350  0.00  0.00     0.051 A 
ATOM      5  C5  IND d   1       2.274  -1.957   0.102  0.00  0.00    -0.031 A 
ATOM      6  C6  IND d   1       2.742  -0.762   0.609  0.00  0.00     0.015 A 
ATOM      7  C7  IND d   1       1.938   0.339   0.694  0.00  0.00    -0.016 A 
ATOM      8  C8  IND d   1       0.637   0.202   0.230  0.00  0.00    -0.047 A 
ATOM      9  C9  IND d   1       0.169  -0.996  -0.325  0.00  0.00    -0.096 A 
ATOM     10  HN1 IND d   1      -0.358   1.932   0.430  0.00  0.00     0.298 HD
ENDROOT
TORSDOF 0
ENDMDL
