MODEL 1
REMARK minimizedAffinity -0.374352366
REMARK minimizedRMSD -1
REMARK  0 active torsions:
REMARK  status: ('A' for Active; 'I' for Inactive)
ROOT
ATOM      1  N1  IND d   1      -1.022  -0.377  -0.541  0.00  0.00    -0.196 N 
ATOM      2  C2  IND d   1      -1.360   0.496   0.456  0.00  0.00     0.054 A 
ATOM      3  C3  IND d   1      -0.346   0.613   1.343  0.00  0.00    -0.031 A 
ATOM      4  C4  IND d   1       1.996  -0.456   1.299  0.00  0.00     0.051 A 
ATOM      5  C5  IND d   1       2.757  -1.355   0.606  0.00  0.00    -0.031 A 
ATOM      6  C6  IND d   1       2.288  -1.985  -0.529  0.00  0.00     0.015 A 
ATOM      7  C7  IND d   1       1.040  -1.729  -1.022  0.00  0.00    -0.016 A 
ATOM      8  C8  IND d   1       0.262  -0.822  -0.317  0.00  0.00    -0.047 A 
ATOM      9  C9  IND d   1       0.716  -0.212   0.860  0.00  0.00    -0.096 A 
ATOM     10  HN1 IND d   1      -1.527  -0.608  -1.197  0.00  0.00     0.298 HD
ENDROOT
TORSDOF 0
ENDMDL
