MODEL 1
REMARK minimizedAffinity -4.55209303
REMARK minimizedRMSD -1
REMARK  0 active torsions:
REMARK  status: ('A' for Active; 'I' for Inactive)
ROOT
ATOM      1  N1  IND d   1      -0.712   1.044   0.319  0.00  0.00    -0.196 N 
ATOM      2  C2  IND d   1      -1.530   0.685  -0.716  0.00  0.00     0.054 A 
ATOM      3  C3  IND d   1      -1.056  -0.423  -1.327  0.00  0.00    -0.031 A 
ATOM      4  C4  IND d   1       0.987  -1.873  -0.733  0.00  0.00     0.051 A 
ATOM      5  C5  IND d   1       2.062  -1.925   0.110  0.00  0.00    -0.031 A 
ATOM      6  C6  IND d   1       2.269  -0.973   1.087  0.00  0.00     0.015 A 
ATOM      7  C7  IND d   1       1.400   0.065   1.266  0.00  0.00    -0.016 A 
ATOM      8  C8  IND d   1       0.312   0.126   0.407  0.00  0.00    -0.047 A 
ATOM      9  C9  IND d   1       0.119  -0.813  -0.614  0.00  0.00    -0.096 A 
ATOM     10  HN1 IND d   1      -0.819   1.728   0.829  0.00  0.00     0.298 HD
ENDROOT
TORSDOF 0
ENDMDL
