MODEL 1
REMARK minimizedAffinity -0.88845849
REMARK minimizedRMSD -1
REMARK  0 active torsions:
REMARK  status: ('A' for Active; 'I' for Inactive)
ROOT
ATOM      1  N1  IND d   1      -0.177  -0.452  -1.715  0.00  0.00    -0.196 N 
ATOM      2  C2  IND d   1      -1.056   0.482  -1.242  0.00  0.00     0.054 A 
ATOM      3  C3  IND d   1      -0.697   0.879  -0.000  0.00  0.00    -0.031 A 
ATOM      4  C4  IND d   1       1.353   0.205   1.404  0.00  0.00     0.051 A 
ATOM      5  C5  IND d   1       2.422  -0.646   1.409  0.00  0.00    -0.031 A 
ATOM      6  C6  IND d   1       2.687  -1.491   0.351  0.00  0.00     0.015 A 
ATOM      7  C7  IND d   1       1.895  -1.509  -0.762  0.00  0.00    -0.016 A 
ATOM      8  C8  IND d   1       0.804  -0.651  -0.768  0.00  0.00    -0.047 A 
ATOM      9  C9  IND d   1       0.506   0.178   0.321  0.00  0.00    -0.096 A 
ATOM     10  HN1 IND d   1      -0.228  -0.849  -2.476  0.00  0.00     0.298 HD
ENDROOT
TORSDOF 0
ENDMDL
