MODEL 1
REMARK minimizedAffinity -3.06732583
REMARK minimizedRMSD -1
REMARK  0 active torsions:
REMARK  status: ('A' for Active; 'I' for Inactive)
ROOT
ATOM      1  N1  IND d   1       0.014   0.365  -0.161  0.00  0.00    -0.196 N 
ATOM      2  C2  IND d   1      -0.152  -0.971  -0.400  0.00  0.00     0.054 A 
ATOM      3  C3  IND d   1       1.032  -1.616  -0.304  0.00  0.00    -0.031 A 
ATOM      4  C4  IND d   1       3.350  -0.696   0.334  0.00  0.00     0.051 A 
ATOM      5  C5  IND d   1       4.008   0.470   0.605  0.00  0.00    -0.031 A 
ATOM      6  C6  IND d   1       3.355   1.685   0.639  0.00  0.00     0.015 A 
ATOM      7  C7  IND d   1       2.011   1.778   0.412  0.00  0.00    -0.016 A 
ATOM      8  C8  IND d   1       1.341   0.597   0.129  0.00  0.00    -0.047 A 
ATOM      9  C9  IND d   1       2.006  -0.634   0.051  0.00  0.00    -0.096 A 
ATOM     10  HN1 IND d   1      -0.606   0.960  -0.187  0.00  0.00     0.298 HD
ENDROOT
TORSDOF 0
ENDMDL
