MODEL 1
REMARK minimizedAffinity -4.50516987
REMARK minimizedRMSD -1
REMARK  0 active torsions:
REMARK  status: ('A' for Active; 'I' for Inactive)
ROOT
ATOM      1  N1  IND d   1      -0.120   1.305  -0.367  0.00  0.00    -0.196 N 
ATOM      2  C2  IND d   1       0.575   2.367   0.139  0.00  0.00     0.054 A 
ATOM      3  C3  IND d   1       1.704   1.943   0.751  0.00  0.00    -0.031 A 
ATOM      4  C4  IND d   1       2.659  -0.440   0.951  0.00  0.00     0.051 A 
ATOM      5  C5  IND d   1       2.362  -1.745   0.677  0.00  0.00    -0.031 A 
ATOM      6  C6  IND d   1       1.201  -2.108   0.025  0.00  0.00     0.015 A 
ATOM      7  C7  IND d   1       0.295  -1.174  -0.389  0.00  0.00    -0.016 A 
ATOM      8  C8  IND d   1       0.589   0.153  -0.106  0.00  0.00    -0.047 A 
ATOM      9  C9  IND d   1       1.745   0.524   0.593  0.00  0.00    -0.096 A 
ATOM     10  HN1 IND d   1      -0.873   1.349  -0.780  0.00  0.00     0.298 HD
ENDROOT
TORSDOF 0
ENDMDL
