MODEL 1
REMARK minimizedAffinity 0.843905628
REMARK minimizedRMSD -1
REMARK  2 active torsions:
REMARK  status: ('A' for Active; 'I' for Inactive)
REMARK    1  A    between atoms: C2'_3  and  C1'_4 
REMARK    2  A    between atoms: C1'_4  and  C1_5 
ROOT
ATOM      1  C1  I4B d   1       1.307  -0.544   1.712  0.00  0.00    -0.075 A 
ATOM      2  C2  I4B d   1       1.546  -1.539   0.798  0.00  0.00     0.003 A 
ATOM      3  C3  I4B d   1       0.529  -1.942  -0.102  0.00  0.00     0.002 A 
ATOM      4  C4  I4B d   1      -0.720  -1.360  -0.019  0.00  0.00    -0.004 A 
ATOM      5  C5  I4B d   1      -0.954  -0.335   0.893  0.00  0.00     0.002 A 
ATOM      6  C6  I4B d   1       0.069   0.085   1.756  0.00  0.00     0.003 A 
ENDROOT
BRANCH   1   7
ATOM      7  C1' I4B d   1       2.393  -0.167   2.668  0.00  0.00     0.060 C 
BRANCH   7   8
ATOM      8  C2' I4B d   1       2.862  -1.429   3.363  0.00  0.00    -0.013 C 
ATOM      9  C4' I4B d   1       4.310  -1.325   3.764  0.00  0.00     0.013 C 
ATOM     10  C3' I4B d   1       1.984  -1.652   4.558  0.00  0.00     0.013 C 
ENDBRANCH   7   8
ENDBRANCH   1   7
TORSDOF 2
ENDMDL
