MODEL 1
REMARK minimizedAffinity -2.77823758
REMARK minimizedRMSD -1
REMARK  2 active torsions:
REMARK  status: ('A' for Active; 'I' for Inactive)
REMARK    1  A    between atoms: C2'_3  and  C1'_4 
REMARK    2  A    between atoms: C1'_4  and  C1_5 
ROOT
ATOM      1  C1  I4B d   1      -0.587  -0.179   1.022  0.00  0.00    -0.075 A 
ATOM      2  C2  I4B d   1       0.519   0.153   1.764  0.00  0.00     0.003 A 
ATOM      3  C3  I4B d   1       1.794  -0.346   1.405  0.00  0.00     0.002 A 
ATOM      4  C4  I4B d   1       1.910  -1.208   0.334  0.00  0.00    -0.004 A 
ATOM      5  C5  I4B d   1       0.791  -1.526  -0.431  0.00  0.00     0.002 A 
ATOM      6  C6  I4B d   1      -0.464  -0.998  -0.093  0.00  0.00     0.003 A 
ENDROOT
BRANCH   1   7
ATOM      7  C1' I4B d   1      -1.924   0.339   1.449  0.00  0.00     0.060 C 
BRANCH   7   8
ATOM      8  C2' I4B d   1      -2.198   1.615   0.679  0.00  0.00    -0.013 C 
ATOM      9  C4' I4B d   1      -3.513   1.540  -0.051  0.00  0.00     0.013 C 
ATOM     10  C3' I4B d   1      -2.183   2.755   1.652  0.00  0.00     0.013 C 
ENDBRANCH   7   8
ENDBRANCH   1   7
TORSDOF 2
ENDMDL
