MODEL 1
REMARK minimizedAffinity -2.73768091
REMARK minimizedRMSD -1
REMARK  2 active torsions:
REMARK  status: ('A' for Active; 'I' for Inactive)
REMARK    1  A    between atoms: C2'_3  and  C1'_4 
REMARK    2  A    between atoms: C1'_4  and  C1_5 
ROOT
ATOM      1  C1  I4B d   1       0.696  -1.988   0.331  0.00  0.00    -0.075 A 
ATOM      2  C2  I4B d   1       1.564  -0.942   0.518  0.00  0.00     0.003 A 
ATOM      3  C3  I4B d   1       2.959  -1.139   0.376  0.00  0.00     0.002 A 
ATOM      4  C4  I4B d   1       3.442  -2.401   0.098  0.00  0.00    -0.004 A 
ATOM      5  C5  I4B d   1       2.559  -3.456  -0.114  0.00  0.00     0.002 A 
ATOM      6  C6  I4B d   1       1.176  -3.246  -0.009  0.00  0.00     0.003 A 
ENDROOT
BRANCH   1   7
ATOM      7  C1' I4B d   1      -0.769  -1.752   0.521  0.00  0.00     0.060 C 
BRANCH   7   8
ATOM      8  C2' I4B d   1      -0.950  -0.349   1.062  0.00  0.00    -0.013 C 
ATOM      9  C4' I4B d   1      -2.277   0.229   0.648  0.00  0.00     0.013 C 
ATOM     10  C3' I4B d   1      -0.828  -0.409   2.555  0.00  0.00     0.013 C 
ENDBRANCH   7   8
ENDBRANCH   1   7
TORSDOF 2
ENDMDL
