MODEL 1
REMARK minimizedAffinity -3.36886168
REMARK minimizedRMSD -1
REMARK  2 active torsions:
REMARK  status: ('A' for Active; 'I' for Inactive)
REMARK    1  A    between atoms: C2'_3  and  C1'_4 
REMARK    2  A    between atoms: C1'_4  and  C1_5 
ROOT
ATOM      1  C1  I4B d   1      -0.744  -0.889   0.796  0.00  0.00    -0.075 A 
ATOM      2  C2  I4B d   1      -0.467  -1.948  -0.032  0.00  0.00     0.003 A 
ATOM      3  C3  I4B d   1       0.870  -2.228  -0.408  0.00  0.00     0.002 A 
ATOM      4  C4  I4B d   1       1.885  -1.399   0.023  0.00  0.00    -0.004 A 
ATOM      5  C5  I4B d   1       1.605  -0.339   0.881  0.00  0.00     0.002 A 
ATOM      6  C6  I4B d   1       0.283  -0.090   1.280  0.00  0.00     0.003 A 
ENDROOT
BRANCH   1   7
ATOM      7  C1' I4B d   1      -2.170  -0.602   1.146  0.00  0.00     0.060 C 
BRANCH   7   8
ATOM      8  C2' I4B d   1      -2.369   0.899   1.100  0.00  0.00    -0.013 C 
ATOM      9  C4' I4B d   1      -3.671   1.256   0.433  0.00  0.00     0.013 C 
ATOM     10  C3' I4B d   1      -2.321   1.416   2.507  0.00  0.00     0.013 C 
ENDBRANCH   7   8
ENDBRANCH   1   7
TORSDOF 2
ENDMDL
