MODEL 1
REMARK minimizedAffinity 2.74605751
REMARK minimizedRMSD -1
REMARK  2 active torsions:
REMARK  status: ('A' for Active; 'I' for Inactive)
REMARK    1  A    between atoms: C2'_3  and  C1'_4 
REMARK    2  A    between atoms: C1'_4  and  C1_5 
ROOT
ATOM      1  C1  I4B d   1      -1.063  -1.248   1.004  0.00  0.00    -0.075 A 
ATOM      2  C2  I4B d   1      -0.452  -0.559   2.022  0.00  0.00     0.003 A 
ATOM      3  C3  I4B d   1      -0.883   0.747   2.357  0.00  0.00     0.002 A 
ATOM      4  C4  I4B d   1      -1.887   1.342   1.621  0.00  0.00    -0.004 A 
ATOM      5  C5  I4B d   1      -2.521   0.633   0.604  0.00  0.00     0.002 A 
ATOM      6  C6  I4B d   1      -2.115  -0.675   0.301  0.00  0.00     0.003 A 
ENDROOT
BRANCH   1   7
ATOM      7  C1' I4B d   1      -0.560  -2.613   0.655  0.00  0.00     0.060 C 
BRANCH   7   8
ATOM      8  C2' I4B d   1       0.470  -2.464  -0.446  0.00  0.00    -0.013 C 
ATOM      9  C4' I4B d   1       1.602  -1.569  -0.015  0.00  0.00     0.013 C 
ATOM     10  C3' I4B d   1       0.968  -3.833  -0.803  0.00  0.00     0.013 C 
ENDBRANCH   7   8
ENDBRANCH   1   7
TORSDOF 2
ENDMDL
