MODEL 1
REMARK minimizedAffinity 6.91889763
REMARK minimizedRMSD -1
REMARK  2 active torsions:
REMARK  status: ('A' for Active; 'I' for Inactive)
REMARK    1  A    between atoms: C2'_3  and  C1'_4 
REMARK    2  A    between atoms: C1'_4  and  C1_5 
ROOT
ATOM      1  C1  I4B d   1       2.144  -1.709   0.456  0.00  0.00    -0.075 A 
ATOM      2  C2  I4B d   1       1.146  -1.112   1.186  0.00  0.00     0.003 A 
ATOM      3  C3  I4B d   1      -0.156  -1.668   1.200  0.00  0.00     0.002 A 
ATOM      4  C4  I4B d   1      -0.427  -2.784   0.436  0.00  0.00    -0.004 A 
ATOM      5  C5  I4B d   1       0.591  -3.401  -0.285  0.00  0.00     0.002 A 
ATOM      6  C6  I4B d   1       1.888  -2.868  -0.265  0.00  0.00     0.003 A 
ENDROOT
BRANCH   1   7
ATOM      7  C1' I4B d   1       3.500  -1.078   0.437  0.00  0.00     0.060 C 
BRANCH   7   8
ATOM      8  C2' I4B d   1       3.871  -0.727   1.864  0.00  0.00    -0.013 C 
ATOM      9  C4' I4B d   1       5.354  -0.862   2.090  0.00  0.00     0.013 C 
ATOM     10  C3' I4B d   1       3.408   0.674   2.132  0.00  0.00     0.013 C 
ENDBRANCH   7   8
ENDBRANCH   1   7
TORSDOF 2
ENDMDL
