MODEL 1
REMARK minimizedAffinity 2.88825631
REMARK minimizedRMSD -1
REMARK  2 active torsions:
REMARK  status: ('A' for Active; 'I' for Inactive)
REMARK    1  A    between atoms: C2'_3  and  C1'_4 
REMARK    2  A    between atoms: C1'_4  and  C1_5 
ROOT
ATOM      1  C1  I4B d   1       3.139  -2.844  -0.049  0.00  0.00    -0.075 A 
ATOM      2  C2  I4B d   1       1.965  -3.549  -0.147  0.00  0.00     0.003 A 
ATOM      3  C3  I4B d   1       0.734  -2.935   0.186  0.00  0.00     0.002 A 
ATOM      4  C4  I4B d   1       0.727  -1.638   0.658  0.00  0.00    -0.004 A 
ATOM      5  C5  I4B d   1       1.915  -0.917   0.735  0.00  0.00     0.002 A 
ATOM      6  C6  I4B d   1       3.128  -1.519   0.368  0.00  0.00     0.003 A 
ENDROOT
BRANCH   1   7
ATOM      7  C1' I4B d   1       4.424  -3.534  -0.377  0.00  0.00     0.060 C 
BRANCH   7   8
ATOM      8  C2' I4B d   1       4.473  -4.829   0.408  0.00  0.00    -0.013 C 
ATOM      9  C4' I4B d   1       4.056  -5.999  -0.444  0.00  0.00     0.013 C 
ATOM     10  C3' I4B d   1       5.870  -5.005   0.924  0.00  0.00     0.013 C 
ENDBRANCH   7   8
ENDBRANCH   1   7
TORSDOF 2
ENDMDL
