MODEL 1
REMARK minimizedAffinity 3.76585412
REMARK minimizedRMSD -1
REMARK  2 active torsions:
REMARK  status: ('A' for Active; 'I' for Inactive)
REMARK    1  A    between atoms: C2'_3  and  C1'_4 
REMARK    2  A    between atoms: C1'_4  and  C1_5 
ROOT
ATOM      1  C1  I4B d   1       0.050  -0.228   1.192  0.00  0.00    -0.075 A 
ATOM      2  C2  I4B d   1      -0.840  -1.193   0.791  0.00  0.00     0.003 A 
ATOM      3  C3  I4B d   1      -0.394  -2.303   0.033  0.00  0.00     0.002 A 
ATOM      4  C4  I4B d   1       0.931  -2.382  -0.342  0.00  0.00    -0.004 A 
ATOM      5  C5  I4B d   1       1.836  -1.414   0.084  0.00  0.00     0.002 A 
ATOM      6  C6  I4B d   1       1.396  -0.337   0.866  0.00  0.00     0.003 A 
ENDROOT
BRANCH   1   7
ATOM      7  C1' I4B d   1      -0.461   0.948   1.963  0.00  0.00     0.060 C 
BRANCH   7   8
ATOM      8  C2' I4B d   1      -1.128   0.427   3.219  0.00  0.00    -0.013 C 
ATOM      9  C4' I4B d   1      -0.119   0.171   4.307  0.00  0.00     0.013 C 
ATOM     10  C3' I4B d   1      -2.148   1.438   3.654  0.00  0.00     0.013 C 
ENDBRANCH   7   8
ENDBRANCH   1   7
TORSDOF 2
ENDMDL
