MODEL 1
REMARK minimizedAffinity -0.435924172
REMARK minimizedRMSD -1
REMARK  2 active torsions:
REMARK  status: ('A' for Active; 'I' for Inactive)
REMARK    1  A    between atoms: C2'_3  and  C1'_4 
REMARK    2  A    between atoms: C1'_4  and  C1_5 
ROOT
ATOM      1  C1  I4B d   1       1.204  -2.650  -0.106  0.00  0.00    -0.075 A 
ATOM      2  C2  I4B d   1       1.607  -1.347  -0.260  0.00  0.00     0.003 A 
ATOM      3  C3  I4B d   1       0.931  -0.306   0.421  0.00  0.00     0.002 A 
ATOM      4  C4  I4B d   1      -0.168  -0.605   1.201  0.00  0.00    -0.004 A 
ATOM      5  C5  I4B d   1      -0.562  -1.929   1.373  0.00  0.00     0.002 A 
ATOM      6  C6  I4B d   1       0.136  -2.960   0.726  0.00  0.00     0.003 A 
ENDROOT
BRANCH   1   7
ATOM      7  C1' I4B d   1       1.920  -3.721  -0.866  0.00  0.00     0.060 C 
BRANCH   7   8
ATOM      8  C2' I4B d   1       3.289  -3.900  -0.242  0.00  0.00    -0.013 C 
ATOM      9  C4' I4B d   1       3.838  -5.275  -0.518  0.00  0.00     0.013 C 
ATOM     10  C3' I4B d   1       4.191  -2.836  -0.792  0.00  0.00     0.013 C 
ENDBRANCH   7   8
ENDBRANCH   1   7
TORSDOF 2
ENDMDL
