MODEL 1
REMARK minimizedAffinity 5.88718939
REMARK minimizedRMSD -1
REMARK  2 active torsions:
REMARK  status: ('A' for Active; 'I' for Inactive)
REMARK    1  A    between atoms: C2'_3  and  C1'_4 
REMARK    2  A    between atoms: C1'_4  and  C1_5 
ROOT
ATOM      1  C1  I4B d   1       0.542  -1.717  -0.116  0.00  0.00    -0.075 A 
ATOM      2  C2  I4B d   1      -0.747  -1.704   0.355  0.00  0.00     0.003 A 
ATOM      3  C3  I4B d   1      -1.130  -0.783   1.360  0.00  0.00     0.002 A 
ATOM      4  C4  I4B d   1      -0.186   0.067   1.898  0.00  0.00    -0.004 A 
ATOM      5  C5  I4B d   1       1.115   0.068   1.404  0.00  0.00     0.002 A 
ATOM      6  C6  I4B d   1       1.479  -0.820   0.382  0.00  0.00     0.003 A 
ENDROOT
BRANCH   1   7
ATOM      7  C1' I4B d   1       0.920  -2.725  -1.154  0.00  0.00     0.060 C 
BRANCH   7   8
ATOM      8  C2' I4B d   1       0.364  -2.257  -2.483  0.00  0.00    -0.013 C 
ATOM      9  C4' I4B d   1       0.841  -0.868  -2.816  0.00  0.00     0.013 C 
ATOM     10  C3' I4B d   1       0.786  -3.240  -3.534  0.00  0.00     0.013 C 
ENDBRANCH   7   8
ENDBRANCH   1   7
TORSDOF 2
ENDMDL
