MODEL 1
REMARK minimizedAffinity 4.97790241
REMARK minimizedRMSD -1
REMARK  2 active torsions:
REMARK  status: ('A' for Active; 'I' for Inactive)
REMARK    1  A    between atoms: C2'_3  and  C1'_4 
REMARK    2  A    between atoms: C1'_4  and  C1_5 
ROOT
ATOM      1  C1  I4B d   1       2.134  -0.780   1.434  0.00  0.00    -0.075 A 
ATOM      2  C2  I4B d   1       2.928  -0.756   2.552  0.00  0.00     0.003 A 
ATOM      3  C3  I4B d   1       4.323  -0.970   2.441  0.00  0.00     0.002 A 
ATOM      4  C4  I4B d   1       4.871  -1.253   1.206  0.00  0.00    -0.004 A 
ATOM      5  C5  I4B d   1       4.067  -1.254   0.069  0.00  0.00     0.002 A 
ATOM      6  C6  I4B d   1       2.692  -1.004   0.182  0.00  0.00     0.003 A 
ENDROOT
BRANCH   1   7
ATOM      7  C1' I4B d   1       0.659  -0.582   1.592  0.00  0.00     0.060 C 
BRANCH   7   8
ATOM      8  C2' I4B d   1      -0.031  -1.261   0.427  0.00  0.00    -0.013 C 
ATOM      9  C4' I4B d   1       0.247  -2.742   0.416  0.00  0.00     0.013 C 
ATOM     10  C3' I4B d   1      -1.501  -0.987   0.535  0.00  0.00     0.013 C 
ENDBRANCH   7   8
ENDBRANCH   1   7
TORSDOF 2
ENDMDL
