MODEL 1
REMARK minimizedAffinity -4.34177732
REMARK minimizedRMSD -1
REMARK  2 active torsions:
REMARK  status: ('A' for Active; 'I' for Inactive)
REMARK    1  A    between atoms: C2'_3  and  C1'_4 
REMARK    2  A    between atoms: C1'_4  and  C1_5 
ROOT
ATOM      1  C1  I4B d   1      -1.421  -1.149   1.270  0.00  0.00    -0.075 A 
ATOM      2  C2  I4B d   1      -0.075  -1.170   1.536  0.00  0.00     0.003 A 
ATOM      3  C3  I4B d   1       0.743  -2.191   0.994  0.00  0.00     0.002 A 
ATOM      4  C4  I4B d   1       0.169  -3.192   0.237  0.00  0.00    -0.004 A 
ATOM      5  C5  I4B d   1      -1.192  -3.155  -0.051  0.00  0.00     0.002 A 
ATOM      6  C6  I4B d   1      -1.991  -2.121   0.458  0.00  0.00     0.003 A 
ENDROOT
BRANCH   1   7
ATOM      7  C1' I4B d   1      -2.261  -0.075   1.886  0.00  0.00     0.060 C 
BRANCH   7   8
ATOM      8  C2' I4B d   1      -2.270   1.110   0.941  0.00  0.00    -0.013 C 
ATOM      9  C4' I4B d   1      -3.577   1.207   0.200  0.00  0.00     0.013 C 
ATOM     10  C3' I4B d   1      -2.012   2.347   1.749  0.00  0.00     0.013 C 
ENDBRANCH   7   8
ENDBRANCH   1   7
TORSDOF 2
ENDMDL
