MODEL 1
REMARK minimizedAffinity -1.52150297
REMARK minimizedRMSD -1
REMARK  2 active torsions:
REMARK  status: ('A' for Active; 'I' for Inactive)
REMARK    1  A    between atoms: C2'_3  and  C1'_4 
REMARK    2  A    between atoms: C1'_4  and  C1_5 
ROOT
ATOM      1  C1  I4B d   1      -0.136  -1.054   1.245  0.00  0.00    -0.075 A 
ATOM      2  C2  I4B d   1       0.101  -1.984   0.265  0.00  0.00     0.003 A 
ATOM      3  C3  I4B d   1       1.401  -2.133  -0.278  0.00  0.00     0.002 A 
ATOM      4  C4  I4B d   1       2.415  -1.301   0.150  0.00  0.00    -0.004 A 
ATOM      5  C5  I4B d   1       2.178  -0.373   1.161  0.00  0.00     0.002 A 
ATOM      6  C6  I4B d   1       0.898  -0.257   1.721  0.00  0.00     0.003 A 
ENDROOT
BRANCH   1   7
ATOM      7  C1' I4B d   1      -1.527  -0.901   1.773  0.00  0.00     0.060 C 
BRANCH   7   8
ATOM      8  C2' I4B d   1      -1.905   0.563   1.675  0.00  0.00    -0.013 C 
ATOM      9  C4' I4B d   1      -2.985   0.780   0.648  0.00  0.00     0.013 C 
ATOM     10  C3' I4B d   1      -2.351   1.018   3.033  0.00  0.00     0.013 C 
ENDBRANCH   7   8
ENDBRANCH   1   7
TORSDOF 2
ENDMDL
