MODEL 1
REMARK minimizedAffinity 13.219902
REMARK minimizedRMSD -1
REMARK  2 active torsions:
REMARK  status: ('A' for Active; 'I' for Inactive)
REMARK    1  A    between atoms: C2'_3  and  C1'_4 
REMARK    2  A    between atoms: C1'_4  and  C1_5 
ROOT
ATOM      1  C1  I4B d   1       2.880  -4.155  -0.422  0.00  0.00    -0.075 A 
ATOM      2  C2  I4B d   1       1.518  -4.248  -0.278  0.00  0.00     0.003 A 
ATOM      3  C3  I4B d   1       0.769  -3.128   0.156  0.00  0.00     0.002 A 
ATOM      4  C4  I4B d   1       1.423  -1.958   0.482  0.00  0.00    -0.004 A 
ATOM      5  C5  I4B d   1       2.801  -1.858   0.313  0.00  0.00     0.002 A 
ATOM      6  C6  I4B d   1       3.533  -2.960  -0.153  0.00  0.00     0.003 A 
ENDROOT
BRANCH   1   7
ATOM      7  C1' I4B d   1       3.644  -5.368  -0.851  0.00  0.00     0.060 C 
BRANCH   7   8
ATOM      8  C2' I4B d   1       5.001  -5.326  -0.178  0.00  0.00    -0.013 C 
ATOM      9  C4' I4B d   1       4.962  -5.998   1.169  0.00  0.00     0.013 C 
ATOM     10  C3' I4B d   1       5.988  -5.994  -1.088  0.00  0.00     0.013 C 
ENDBRANCH   7   8
ENDBRANCH   1   7
TORSDOF 2
ENDMDL
