MODEL 1
REMARK minimizedAffinity -2.71901345
REMARK minimizedRMSD -1
REMARK  2 active torsions:
REMARK  status: ('A' for Active; 'I' for Inactive)
REMARK    1  A    between atoms: C2'_3  and  C1'_4 
REMARK    2  A    between atoms: C1'_4  and  C1_5 
ROOT
ATOM      1  C1  I4B d   1      -0.712  -1.563   0.597  0.00  0.00    -0.075 A 
ATOM      2  C2  I4B d   1       0.391  -0.826   0.951  0.00  0.00     0.003 A 
ATOM      3  C3  I4B d   1       1.687  -1.259   0.579  0.00  0.00     0.002 A 
ATOM      4  C4  I4B d   1       1.836  -2.451  -0.099  0.00  0.00    -0.004 A 
ATOM      5  C5  I4B d   1       0.715  -3.185  -0.477  0.00  0.00     0.002 A 
ATOM      6  C6  I4B d   1      -0.568  -2.732  -0.138  0.00  0.00     0.003 A 
ENDROOT
BRANCH   1   7
ATOM      7  C1' I4B d   1      -2.063  -1.094   1.036  0.00  0.00     0.060 C 
BRANCH   7   8
ATOM      8  C2' I4B d   1      -2.120   0.408   0.845  0.00  0.00    -0.013 C 
ATOM      9  C4' I4B d   1      -3.458   0.838   0.302  0.00  0.00     0.013 C 
ATOM     10  C3' I4B d   1      -1.841   1.055   2.169  0.00  0.00     0.013 C 
ENDBRANCH   7   8
ENDBRANCH   1   7
TORSDOF 2
ENDMDL
