MODEL 1
REMARK minimizedAffinity -6.14871979
REMARK minimizedRMSD -1
REMARK  0 active torsions:
REMARK  status: ('A' for Active; 'I' for Inactive)
ROOT
ATOM      1  N1  IND d   1       0.105   0.122  -0.975  0.00  0.00    -0.196 N 
ATOM      2  C2  IND d   1       0.814  -0.666  -0.111  0.00  0.00     0.054 A 
ATOM      3  C3  IND d   1       0.927  -0.060   1.092  0.00  0.00    -0.031 A 
ATOM      4  C4  IND d   1      -0.060   2.178   1.896  0.00  0.00     0.051 A 
ATOM      5  C5  IND d   1      -0.751   3.271   1.454  0.00  0.00    -0.031 A 
ATOM      6  C6  IND d   1      -1.204   3.371   0.155  0.00  0.00     0.015 A 
ATOM      7  C7  IND d   1      -0.991   2.372  -0.753  0.00  0.00    -0.016 A 
ATOM      8  C8  IND d   1      -0.283   1.264  -0.309  0.00  0.00    -0.047 A 
ATOM      9  C9  IND d   1       0.216   1.175   0.996  0.00  0.00    -0.096 A 
ATOM     10  HN1 IND d   1      -0.070  -0.065  -1.796  0.00  0.00     0.298 HD
ENDROOT
TORSDOF 0
ENDMDL
