MODEL 1
REMARK minimizedAffinity -4.80923414
REMARK minimizedRMSD -1
REMARK  0 active torsions:
REMARK  status: ('A' for Active; 'I' for Inactive)
ROOT
ATOM      1  N1  IND d   1      -0.004   1.421  -1.973  0.00  0.00    -0.196 N 
ATOM      2  C2  IND d   1      -0.003   0.300  -1.191  0.00  0.00     0.054 A 
ATOM      3  C3  IND d   1      -0.334   0.613   0.082  0.00  0.00    -0.031 A 
ATOM      4  C4  IND d   1      -1.017   2.885   1.081  0.00  0.00     0.051 A 
ATOM      5  C5  IND d   1      -1.131   4.210   0.766  0.00  0.00    -0.031 A 
ATOM      6  C6  IND d   1      -0.872   4.682  -0.505  0.00  0.00     0.015 A 
ATOM      7  C7  IND d   1      -0.500   3.841  -1.515  0.00  0.00    -0.016 A 
ATOM      8  C8  IND d   1      -0.376   2.496  -1.197  0.00  0.00    -0.047 A 
ATOM      9  C9  IND d   1      -0.596   2.018   0.102  0.00  0.00    -0.096 A 
ATOM     10  HN1 IND d   1       0.194   1.449  -2.809  0.00  0.00     0.298 HD
ENDROOT
TORSDOF 0
ENDMDL
