MODEL 1
REMARK minimizedAffinity -2.36237764
REMARK minimizedRMSD -1
REMARK  0 active torsions:
REMARK  status: ('A' for Active; 'I' for Inactive)
ROOT
ATOM      1  N1  IND d   1       0.448   0.057  -1.701  0.00  0.00    -0.196 N 
ATOM      2  C2  IND d   1       0.721  -1.278  -1.598  0.00  0.00     0.054 A 
ATOM      3  C3  IND d   1       0.659  -1.673  -0.307  0.00  0.00    -0.031 A 
ATOM      4  C4  IND d   1       0.028  -0.318   1.789  0.00  0.00     0.051 A 
ATOM      5  C5  IND d   1      -0.266   0.951   2.203  0.00  0.00    -0.031 A 
ATOM      6  C6  IND d   1      -0.342   2.007   1.319  0.00  0.00     0.015 A 
ATOM      7  C7  IND d   1      -0.136   1.831  -0.020  0.00  0.00    -0.016 A 
ATOM      8  C8  IND d   1       0.170   0.546  -0.443  0.00  0.00    -0.047 A 
ATOM      9  C9  IND d   1       0.290  -0.522   0.455  0.00  0.00    -0.096 A 
ATOM     10  HN1 IND d   1       0.450   0.515  -2.429  0.00  0.00     0.298 HD
ENDROOT
TORSDOF 0
ENDMDL
