MODEL 1
REMARK minimizedAffinity -0.609537959
REMARK minimizedRMSD -1
REMARK  0 active torsions:
REMARK  status: ('A' for Active; 'I' for Inactive)
ROOT
ATOM      1  N1  IND d   1       1.372  -0.033   0.395  0.00  0.00    -0.196 N 
ATOM      2  C2  IND d   1       0.943  -0.975  -0.498  0.00  0.00     0.054 A 
ATOM      3  C3  IND d   1      -0.267  -0.635  -0.997  0.00  0.00    -0.031 A 
ATOM      4  C4  IND d   1      -1.680   1.473  -0.563  0.00  0.00     0.051 A 
ATOM      5  C5  IND d   1      -1.721   2.603   0.204  0.00  0.00    -0.031 A 
ATOM      6  C6  IND d   1      -0.712   2.920   1.090  0.00  0.00     0.015 A 
ATOM      7  C7  IND d   1       0.386   2.121   1.234  0.00  0.00    -0.016 A 
ATOM      8  C8  IND d   1       0.428   0.969   0.462  0.00  0.00    -0.047 A 
ATOM      9  C9  IND d   1      -0.613   0.620  -0.408  0.00  0.00    -0.096 A 
ATOM     10  HN1 IND d   1       2.107  -0.062   0.840  0.00  0.00     0.298 HD
ENDROOT
TORSDOF 0
ENDMDL
