MODEL 1
REMARK minimizedAffinity -1.25655043
REMARK minimizedRMSD -1
REMARK  0 active torsions:
REMARK  status: ('A' for Active; 'I' for Inactive)
ROOT
ATOM      1  N1  IND d   1      -0.360   1.566  -1.226  0.00  0.00    -0.196 N 
ATOM      2  C2  IND d   1      -0.078   0.395  -1.874  0.00  0.00     0.054 A 
ATOM      3  C3  IND d   1       0.407  -0.519  -1.004  0.00  0.00    -0.031 A 
ATOM      4  C4  IND d   1       0.723  -0.344   1.545  0.00  0.00     0.051 A 
ATOM      5  C5  IND d   1       0.638   0.542   2.583  0.00  0.00    -0.031 A 
ATOM      6  C6  IND d   1       0.204   1.839   2.401  0.00  0.00     0.015 A 
ATOM      7  C7  IND d   1      -0.173   2.298   1.171  0.00  0.00    -0.016 A 
ATOM      8  C8  IND d   1      -0.081   1.404   0.113  0.00  0.00    -0.047 A 
ATOM      9  C9  IND d   1       0.399   0.099   0.285  0.00  0.00    -0.096 A 
ATOM     10  HN1 IND d   1      -0.662   2.282  -1.593  0.00  0.00     0.298 HD
ENDROOT
TORSDOF 0
ENDMDL
