MODEL 1
REMARK minimizedAffinity 1.11872804
REMARK minimizedRMSD -1
REMARK  0 active torsions:
REMARK  status: ('A' for Active; 'I' for Inactive)
ROOT
ATOM      1  N1  IND d   1      -0.858  -0.604  -1.483  0.00  0.00    -0.196 N 
ATOM      2  C2  IND d   1       0.019   0.012  -0.635  0.00  0.00     0.054 A 
ATOM      3  C3  IND d   1       0.857  -0.895  -0.085  0.00  0.00    -0.031 A 
ATOM      4  C4  IND d   1       1.032  -3.429  -0.509  0.00  0.00     0.051 A 
ATOM      5  C5  IND d   1       0.420  -4.454  -1.174  0.00  0.00    -0.031 A 
ATOM      6  C6  IND d   1      -0.669  -4.244  -1.994  0.00  0.00     0.015 A 
ATOM      7  C7  IND d   1      -1.183  -2.994  -2.190  0.00  0.00    -0.016 A 
ATOM      8  C8  IND d   1      -0.569  -1.951  -1.512  0.00  0.00    -0.047 A 
ATOM      9  C9  IND d   1       0.511  -2.163  -0.644  0.00  0.00    -0.096 A 
ATOM     10  HN1 IND d   1      -1.486  -0.216  -1.925  0.00  0.00     0.298 HD
ENDROOT
TORSDOF 0
ENDMDL
