MODEL 1
REMARK minimizedAffinity -5.07675314
REMARK minimizedRMSD -1
REMARK  0 active torsions:
REMARK  status: ('A' for Active; 'I' for Inactive)
ROOT
ATOM      1  N1  IND d   1       0.740  -0.190  -0.720  0.00  0.00    -0.196 N 
ATOM      2  C2  IND d   1       1.239  -0.904   0.333  0.00  0.00     0.054 A 
ATOM      3  C3  IND d   1       1.011  -0.250   1.495  0.00  0.00    -0.031 A 
ATOM      4  C4  IND d   1      -0.249   1.956   1.910  0.00  0.00     0.051 A 
ATOM      5  C5  IND d   1      -0.853   2.991   1.253  0.00  0.00    -0.031 A 
ATOM      6  C6  IND d   1      -0.961   3.019  -0.122  0.00  0.00     0.015 A 
ATOM      7  C7  IND d   1      -0.477   2.001  -0.895  0.00  0.00    -0.016 A 
ATOM      8  C8  IND d   1       0.143   0.952  -0.232  0.00  0.00    -0.047 A 
ATOM      9  C9  IND d   1       0.293   0.939   1.160  0.00  0.00    -0.096 A 
ATOM     10  HN1 IND d   1       0.791  -0.415  -1.548  0.00  0.00     0.298 HD
ENDROOT
TORSDOF 0
ENDMDL
