MODEL 1
REMARK minimizedAffinity -3.65504217
REMARK minimizedRMSD -1
REMARK  0 active torsions:
REMARK  status: ('A' for Active; 'I' for Inactive)
ROOT
ATOM      1  N1  IND d   1       0.316   1.673   2.124  0.00  0.00    -0.196 N 
ATOM      2  C2  IND d   1      -0.792   2.460   1.979  0.00  0.00     0.054 A 
ATOM      3  C3  IND d   1      -1.496   2.086   0.888  0.00  0.00    -0.031 A 
ATOM      4  C4  IND d   1      -1.069   0.143  -0.746  0.00  0.00     0.051 A 
ATOM      5  C5  IND d   1      -0.161  -0.834  -1.045  0.00  0.00    -0.031 A 
ATOM      6  C6  IND d   1       0.975  -1.030  -0.286  0.00  0.00     0.015 A 
ATOM      7  C7  IND d   1       1.239  -0.262   0.812  0.00  0.00    -0.016 A 
ATOM      8  C8  IND d   1       0.323   0.735   1.114  0.00  0.00    -0.047 A 
ATOM      9  C9  IND d   1      -0.810   0.967   0.323  0.00  0.00    -0.096 A 
ATOM     10  HN1 IND d   1       0.909   1.750   2.742  0.00  0.00     0.298 HD
ENDROOT
TORSDOF 0
ENDMDL
