MODEL 1
REMARK minimizedAffinity -4.21377325
REMARK minimizedRMSD -1
REMARK  0 active torsions:
REMARK  status: ('A' for Active; 'I' for Inactive)
ROOT
ATOM      1  N1  IND d   1       0.061   0.353  -0.986  0.00  0.00    -0.196 N 
ATOM      2  C2  IND d   1       0.438  -0.542  -0.024  0.00  0.00     0.054 A 
ATOM      3  C3  IND d   1       0.256  -0.014   1.207  0.00  0.00    -0.031 A 
ATOM      4  C4  IND d   1      -0.744   2.261   1.879  0.00  0.00     0.051 A 
ATOM      5  C5  IND d   1      -1.198   3.436   1.350  0.00  0.00    -0.031 A 
ATOM      6  C6  IND d   1      -1.260   3.647  -0.012  0.00  0.00     0.015 A 
ATOM      7  C7  IND d   1      -0.879   2.682  -0.900  0.00  0.00    -0.016 A 
ATOM      8  C8  IND d   1      -0.410   1.490  -0.367  0.00  0.00    -0.047 A 
ATOM      9  C9  IND d   1      -0.305   1.286   1.015  0.00  0.00    -0.096 A 
ATOM     10  HN1 IND d   1       0.110   0.227  -1.835  0.00  0.00     0.298 HD
ENDROOT
TORSDOF 0
ENDMDL
