MODEL 1
REMARK minimizedAffinity -4.16493368
REMARK minimizedRMSD -1
REMARK  0 active torsions:
REMARK  status: ('A' for Active; 'I' for Inactive)
ROOT
ATOM      1  N1  IND d   1      -0.533   1.028   2.092  0.00  0.00    -0.196 N 
ATOM      2  C2  IND d   1      -1.180   2.203   2.356  0.00  0.00     0.054 A 
ATOM      3  C3  IND d   1      -1.369   2.902   1.215  0.00  0.00    -0.031 A 
ATOM      4  C4  IND d   1      -0.791   2.262  -1.210  0.00  0.00     0.051 A 
ATOM      5  C5  IND d   1      -0.160   1.302  -1.950  0.00  0.00    -0.031 A 
ATOM      6  C6  IND d   1       0.389   0.177  -1.368  0.00  0.00     0.015 A 
ATOM      7  C7  IND d   1       0.315  -0.036  -0.020  0.00  0.00    -0.016 A 
ATOM      8  C8  IND d   1      -0.319   0.940   0.734  0.00  0.00    -0.047 A 
ATOM      9  C9  IND d   1      -0.840   2.105   0.155  0.00  0.00    -0.096 A 
ATOM     10  HN1 IND d   1      -0.299   0.441   2.676  0.00  0.00     0.298 HD
ENDROOT
TORSDOF 0
ENDMDL
