MODEL 1
REMARK minimizedAffinity -4.99265003
REMARK minimizedRMSD -1
REMARK  0 active torsions:
REMARK  status: ('A' for Active; 'I' for Inactive)
ROOT
ATOM      1  N1  IND d   1       0.411   0.974  -0.988  0.00  0.00    -0.196 N 
ATOM      2  C2  IND d   1       0.729  -0.341  -0.791  0.00  0.00     0.054 A 
ATOM      3  C3  IND d   1       0.386  -0.726   0.459  0.00  0.00    -0.031 A 
ATOM      4  C4  IND d   1      -0.802   0.608   2.313  0.00  0.00     0.051 A 
ATOM      5  C5  IND d   1      -1.259   1.860   2.615  0.00  0.00    -0.031 A 
ATOM      6  C6  IND d   1      -1.184   2.901   1.712  0.00  0.00     0.015 A 
ATOM      7  C7  IND d   1      -0.656   2.725   0.464  0.00  0.00    -0.016 A 
ATOM      8  C8  IND d   1      -0.185   1.457   0.156  0.00  0.00    -0.047 A 
ATOM      9  C9  IND d   1      -0.219   0.407   1.084  0.00  0.00    -0.096 A 
ATOM     10  HN1 IND d   1       0.559   1.423  -1.706  0.00  0.00     0.298 HD
ENDROOT
TORSDOF 0
ENDMDL
