MODEL 1
REMARK minimizedAffinity -4.96444273
REMARK minimizedRMSD -1
REMARK  0 active torsions:
REMARK  status: ('A' for Active; 'I' for Inactive)
ROOT
ATOM      1  C   UNL d   1      -1.983  -0.700   1.725  0.00  0.00    -0.002 A 
ATOM      2  C1  UNL d   1      -0.801  -0.589   2.444  0.00  0.00     0.010 A 
ATOM      3  C2  UNL d   1       0.428  -0.840   1.832  0.00  0.00     0.041 A 
ATOM      4  C3  UNL d   1       0.451  -1.204   0.472  0.00  0.00    -0.075 A 
ATOM      5  S   UNL d   1       1.839  -1.557  -0.487  0.00  0.00     0.015 SA
ATOM      6  C4  UNL d   1       0.897  -1.862  -1.874  0.00  0.00     0.022 A 
ATOM      7  C5  UNL d   1      -0.447  -1.703  -1.629  0.00  0.00     0.026 A 
ATOM      8  C6  UNL d   1      -0.726  -1.321  -0.274  0.00  0.00    -0.082 A 
ATOM      9  C7  UNL d   1      -1.957  -1.062   0.376  0.00  0.00     0.045 A 
ENDROOT
TORSDOF 0
ENDMDL
