MODEL 1
REMARK minimizedAffinity -2.70094204
REMARK minimizedRMSD -1
REMARK  0 active torsions:
REMARK  status: ('A' for Active; 'I' for Inactive)
ROOT
ATOM      1  C   UNL d   1       2.099  -2.148  -0.799  0.00  0.00    -0.002 A 
ATOM      2  C1  UNL d   1       1.148  -2.669  -1.665  0.00  0.00     0.010 A 
ATOM      3  C2  UNL d   1      -0.211  -2.416  -1.463  0.00  0.00     0.041 A 
ATOM      4  C3  UNL d   1      -0.601  -1.621  -0.368  0.00  0.00    -0.075 A 
ATOM      5  S   UNL d   1      -2.207  -1.178   0.076  0.00  0.00     0.015 SA
ATOM      6  C4  UNL d   1      -1.668  -0.286   1.424  0.00  0.00     0.022 A 
ATOM      7  C5  UNL d   1      -0.299  -0.314   1.548  0.00  0.00     0.026 A 
ATOM      8  C6  UNL d   1       0.339  -1.084   0.517  0.00  0.00    -0.082 A 
ATOM      9  C7  UNL d   1       1.708  -1.359   0.286  0.00  0.00     0.045 A 
ENDROOT
TORSDOF 0
ENDMDL
