MODEL 1
REMARK minimizedAffinity -1.8294276
REMARK minimizedRMSD -1
REMARK  0 active torsions:
REMARK  status: ('A' for Active; 'I' for Inactive)
ROOT
ATOM      1  C   UNL d   1      -3.082   0.201   1.714  0.00  0.00    -0.002 A 
ATOM      2  C1  UNL d   1      -3.675   0.093   0.464  0.00  0.00     0.010 A 
ATOM      3  C2  UNL d   1      -3.045  -0.614  -0.562  0.00  0.00     0.041 A 
ATOM      4  C3  UNL d   1      -1.798  -1.217  -0.309  0.00  0.00    -0.075 A 
ATOM      5  S   UNL d   1      -0.842  -2.132  -1.413  0.00  0.00     0.015 SA
ATOM      6  C4  UNL d   1       0.376  -2.402  -0.252  0.00  0.00     0.022 A 
ATOM      7  C5  UNL d   1       0.077  -1.815   0.955  0.00  0.00     0.026 A 
ATOM      8  C6  UNL d   1      -1.181  -1.123   0.942  0.00  0.00    -0.082 A 
ATOM      9  C7  UNL d   1      -1.844  -0.399   1.962  0.00  0.00     0.045 A 
ENDROOT
TORSDOF 0
ENDMDL
