MODEL 1
REMARK minimizedAffinity -1.27891028
REMARK minimizedRMSD -1
REMARK  0 active torsions:
REMARK  status: ('A' for Active; 'I' for Inactive)
ROOT
ATOM      1  C   UNL d   1      -2.955   0.384   1.801  0.00  0.00    -0.002 A 
ATOM      2  C1  UNL d   1      -3.219  -0.288   0.616  0.00  0.00     0.010 A 
ATOM      3  C2  UNL d   1      -2.236  -1.076   0.012  0.00  0.00     0.041 A 
ATOM      4  C3  UNL d   1      -0.973  -1.180   0.627  0.00  0.00    -0.075 A 
ATOM      5  S   UNL d   1       0.382  -2.088   0.070  0.00  0.00     0.015 SA
ATOM      6  C4  UNL d   1       1.343  -1.606   1.393  0.00  0.00     0.022 A 
ATOM      7  C5  UNL d   1       0.662  -0.773   2.248  0.00  0.00     0.026 A 
ATOM      8  C6  UNL d   1      -0.684  -0.514   1.821  0.00  0.00    -0.082 A 
ATOM      9  C7  UNL d   1      -1.700   0.278   2.408  0.00  0.00     0.045 A 
ENDROOT
TORSDOF 0
ENDMDL
