MODEL 1
REMARK minimizedAffinity 1.5515933
REMARK minimizedRMSD -1
REMARK  0 active torsions:
REMARK  status: ('A' for Active; 'I' for Inactive)
ROOT
ATOM      1  C   UNL d   1       5.978   4.086  -5.290  0.00  0.00    -0.002 A 
ATOM      2  C1  UNL d   1       5.758   5.338  -5.849  0.00  0.00     0.010 A 
ATOM      3  C2  UNL d   1       4.544   6.000  -5.653  0.00  0.00     0.041 A 
ATOM      4  C3  UNL d   1       3.546   5.378  -4.878  0.00  0.00    -0.075 A 
ATOM      5  S   UNL d   1       1.983   6.000  -4.503  0.00  0.00     0.015 SA
ATOM      6  C4  UNL d   1       1.570   4.620  -3.592  0.00  0.00     0.022 A 
ATOM      7  C5  UNL d   1       2.588   3.697  -3.564  0.00  0.00     0.026 A 
ATOM      8  C6  UNL d   1       3.744   4.119  -4.304  0.00  0.00    -0.082 A 
ATOM      9  C7  UNL d   1       4.985   3.473  -4.521  0.00  0.00     0.045 A 
ENDROOT
TORSDOF 0
ENDMDL
