MODEL 1
REMARK minimizedAffinity 8.52210903
REMARK minimizedRMSD -1
REMARK  0 active torsions:
REMARK  status: ('A' for Active; 'I' for Inactive)
ROOT
ATOM      1  C   UNL d   1      -5.849  -4.910  -4.026  0.00  0.00    -0.002 A 
ATOM      2  C1  UNL d   1      -5.999  -3.657  -3.449  0.00  0.00     0.010 A 
ATOM      3  C2  UNL d   1      -5.046  -3.170  -2.552  0.00  0.00     0.041 A 
ATOM      4  C3  UNL d   1      -3.927  -3.969  -2.245  0.00  0.00    -0.075 A 
ATOM      5  S   UNL d   1      -2.632  -3.578  -1.176  0.00  0.00     0.015 SA
ATOM      6  C4  UNL d   1      -1.849  -5.065  -1.462  0.00  0.00     0.022 A 
ATOM      7  C5  UNL d   1      -2.545  -5.852  -2.349  0.00  0.00     0.026 A 
ATOM      8  C6  UNL d   1      -3.754  -5.234  -2.815  0.00  0.00    -0.082 A 
ATOM      9  C7  UNL d   1      -4.738  -5.700  -3.719  0.00  0.00     0.045 A 
ENDROOT
TORSDOF 0
ENDMDL
