MODEL 1
REMARK minimizedAffinity 16.9090996
REMARK minimizedRMSD -1
REMARK  0 active torsions:
REMARK  status: ('A' for Active; 'I' for Inactive)
ROOT
ATOM      1  C   UNL d   1      -0.042   0.435   3.091  0.00  0.00    -0.002 A 
ATOM      2  C1  UNL d   1      -1.178   1.227   3.183  0.00  0.00     0.010 A 
ATOM      3  C2  UNL d   1      -1.241   2.457   2.526  0.00  0.00     0.041 A 
ATOM      4  C3  UNL d   1      -0.133   2.882   1.767  0.00  0.00    -0.075 A 
ATOM      5  S   UNL d   1       0.015   4.351   0.877  0.00  0.00     0.015 SA
ATOM      6  C4  UNL d   1       1.589   3.962   0.353  0.00  0.00     0.022 A 
ATOM      7  C5  UNL d   1       2.008   2.745   0.837  0.00  0.00     0.026 A 
ATOM      8  C6  UNL d   1       1.021   2.102   1.659  0.00  0.00    -0.082 A 
ATOM      9  C7  UNL d   1       1.055   0.860   2.337  0.00  0.00     0.045 A 
ENDROOT
TORSDOF 0
ENDMDL
