MODEL 1
REMARK minimizedAffinity 5.57138157
REMARK minimizedRMSD -1
REMARK  0 active torsions:
REMARK  status: ('A' for Active; 'I' for Inactive)
ROOT
ATOM      1  C   UNL d   1      -0.367  -2.951   0.364  0.00  0.00    -0.002 A 
ATOM      2  C1  UNL d   1      -1.550  -2.249   0.177  0.00  0.00     0.010 A 
ATOM      3  C2  UNL d   1      -2.527  -2.726  -0.700  0.00  0.00     0.041 A 
ATOM      4  C3  UNL d   1      -2.294  -3.932  -1.390  0.00  0.00    -0.075 A 
ATOM      5  S   UNL d   1      -3.348  -4.707  -2.512  0.00  0.00     0.015 SA
ATOM      6  C4  UNL d   1      -2.253  -5.989  -2.768  0.00  0.00     0.022 A 
ATOM      7  C5  UNL d   1      -1.107  -5.844  -2.024  0.00  0.00     0.026 A 
ATOM      8  C6  UNL d   1      -1.111  -4.656  -1.217  0.00  0.00    -0.082 A 
ATOM      9  C7  UNL d   1      -0.140  -4.147  -0.322  0.00  0.00     0.045 A 
ENDROOT
TORSDOF 0
ENDMDL
