MODEL 1
REMARK minimizedAffinity 8.43954754
REMARK minimizedRMSD -1
REMARK  0 active torsions:
REMARK  status: ('A' for Active; 'I' for Inactive)
ROOT
ATOM      1  C   UNL d   1       3.942  -0.085  -0.657  0.00  0.00    -0.002 A 
ATOM      2  C1  UNL d   1       3.461   0.902  -1.506  0.00  0.00     0.010 A 
ATOM      3  C2  UNL d   1       2.515   1.825  -1.057  0.00  0.00     0.041 A 
ATOM      4  C3  UNL d   1       2.057   1.740   0.273  0.00  0.00    -0.075 A 
ATOM      5  S   UNL d   1       0.902   2.764   1.042  0.00  0.00     0.015 SA
ATOM      6  C4  UNL d   1       1.020   1.915   2.515  0.00  0.00     0.022 A 
ATOM      7  C5  UNL d   1       1.915   0.874   2.440  0.00  0.00     0.026 A 
ATOM      8  C6  UNL d   1       2.527   0.756   1.147  0.00  0.00    -0.082 A 
ATOM      9  C7  UNL d   1       3.486  -0.166   0.661  0.00  0.00     0.045 A 
ENDROOT
TORSDOF 0
ENDMDL
