MODEL 1
REMARK minimizedAffinity 12.7820473
REMARK minimizedRMSD -1
REMARK  0 active torsions:
REMARK  status: ('A' for Active; 'I' for Inactive)
ROOT
ATOM      1  C   UNL d   1      -0.305   2.122  -2.656  0.00  0.00    -0.002 A 
ATOM      2  C1  UNL d   1      -0.641   0.778  -2.731  0.00  0.00     0.010 A 
ATOM      3  C2  UNL d   1       0.046  -0.170  -1.970  0.00  0.00     0.041 A 
ATOM      4  C3  UNL d   1       1.085   0.261  -1.122  0.00  0.00    -0.075 A 
ATOM      5  S   UNL d   1       2.064  -0.720  -0.096  0.00  0.00     0.015 SA
ATOM      6  C4  UNL d   1       2.951   0.622   0.467  0.00  0.00     0.022 A 
ATOM      7  C5  UNL d   1       2.524   1.798  -0.104  0.00  0.00     0.026 A 
ATOM      8  C6  UNL d   1       1.442   1.609  -1.028  0.00  0.00    -0.082 A 
ATOM      9  C7  UNL d   1       0.727   2.545  -1.814  0.00  0.00     0.045 A 
ENDROOT
TORSDOF 0
ENDMDL
