MODEL 1
REMARK minimizedAffinity 1.00187123
REMARK minimizedRMSD -1
REMARK  0 active torsions:
REMARK  status: ('A' for Active; 'I' for Inactive)
ROOT
ATOM      1  C   UNL d   1      -6.000  -0.834   4.861  0.00  0.00    -0.002 A 
ATOM      2  C1  UNL d   1      -5.993  -0.040   6.000  0.00  0.00     0.010 A 
ATOM      3  C2  UNL d   1      -5.343   1.196   6.000  0.00  0.00     0.041 A 
ATOM      4  C3  UNL d   1      -4.696   1.626   4.825  0.00  0.00    -0.075 A 
ATOM      5  S   UNL d   1      -3.838   3.103   4.592  0.00  0.00     0.015 SA
ATOM      6  C4  UNL d   1      -3.461   2.716   2.975  0.00  0.00     0.022 A 
ATOM      7  C5  UNL d   1      -3.969   1.493   2.606  0.00  0.00     0.026 A 
ATOM      8  C6  UNL d   1      -4.690   0.845   3.665  0.00  0.00    -0.082 A 
ATOM      9  C7  UNL d   1      -5.357  -0.404   3.697  0.00  0.00     0.045 A 
ENDROOT
TORSDOF 0
ENDMDL
