MODEL 1
REMARK minimizedAffinity 18.3030949
REMARK minimizedRMSD -1
REMARK  0 active torsions:
REMARK  status: ('A' for Active; 'I' for Inactive)
ROOT
ATOM      1  C   UNL d   1      -1.669  -5.618  -4.530  0.00  0.00    -0.002 A 
ATOM      2  C1  UNL d   1      -1.309  -5.993  -3.243  0.00  0.00     0.010 A 
ATOM      3  C2  UNL d   1      -2.253  -5.999  -2.214  0.00  0.00     0.041 A 
ATOM      4  C3  UNL d   1      -3.578  -5.619  -2.503  0.00  0.00    -0.075 A 
ATOM      5  S   UNL d   1      -4.903  -5.551  -1.402  0.00  0.00     0.015 SA
ATOM      6  C4  UNL d   1      -5.979  -5.022  -2.614  0.00  0.00     0.022 A 
ATOM      7  C5  UNL d   1      -5.360  -4.895  -3.835  0.00  0.00     0.026 A 
ATOM      8  C6  UNL d   1      -3.966  -5.237  -3.791  0.00  0.00    -0.082 A 
ATOM      9  C7  UNL d   1      -2.985  -5.241  -4.812  0.00  0.00     0.045 A 
ENDROOT
TORSDOF 0
ENDMDL
