MODEL 1
REMARK minimizedAffinity 12.2687721
REMARK minimizedRMSD -1
REMARK  0 active torsions:
REMARK  status: ('A' for Active; 'I' for Inactive)
ROOT
ATOM      1  C   UNL d   1      -0.101   0.220  -3.116  0.00  0.00    -0.002 A 
ATOM      2  C1  UNL d   1      -0.224   1.601  -3.068  0.00  0.00     0.010 A 
ATOM      3  C2  UNL d   1       0.377   2.332  -2.041  0.00  0.00     0.041 A 
ATOM      4  C3  UNL d   1       1.113   1.645  -1.056  0.00  0.00    -0.075 A 
ATOM      5  S   UNL d   1       1.936   2.332   0.295  0.00  0.00     0.015 SA
ATOM      6  C4  UNL d   1       2.472   0.808   0.839  0.00  0.00     0.022 A 
ATOM      7  C5  UNL d   1       2.042  -0.211   0.022  0.00  0.00     0.026 A 
ATOM      8  C6  UNL d   1       1.252   0.255  -1.083  0.00  0.00    -0.082 A 
ATOM      9  C7  UNL d   1       0.630  -0.458  -2.136  0.00  0.00     0.045 A 
ENDROOT
TORSDOF 0
ENDMDL
