MODEL 1
REMARK minimizedAffinity 8.86239815
REMARK minimizedRMSD -1
REMARK  0 active torsions:
REMARK  status: ('A' for Active; 'I' for Inactive)
ROOT
ATOM      1  C   UNL d   1       0.697   2.903   2.707  0.00  0.00    -0.002 A 
ATOM      2  C1  UNL d   1      -0.553   2.300   2.726  0.00  0.00     0.010 A 
ATOM      3  C2  UNL d   1      -0.778   1.111   2.030  0.00  0.00     0.041 A 
ATOM      4  C3  UNL d   1       0.285   0.532   1.308  0.00  0.00    -0.075 A 
ATOM      5  S   UNL d   1       0.242  -0.922   0.382  0.00  0.00     0.015 SA
ATOM      6  C4  UNL d   1       1.881  -0.777  -0.059  0.00  0.00     0.022 A 
ATOM      7  C5  UNL d   1       2.463   0.348   0.477  0.00  0.00     0.026 A 
ATOM      8  C6  UNL d   1       1.552   1.120   1.275  0.00  0.00    -0.082 A 
ATOM      9  C7  UNL d   1       1.748   2.326   1.991  0.00  0.00     0.045 A 
ENDROOT
TORSDOF 0
ENDMDL
