MODEL 1
REMARK minimizedAffinity 7.57086897
REMARK minimizedRMSD -1
REMARK  0 active torsions:
REMARK  status: ('A' for Active; 'I' for Inactive)
ROOT
ATOM      1  C   UNL d   1       0.868   0.692   2.651  0.00  0.00    -0.002 A 
ATOM      2  C1  UNL d   1       0.141  -0.489   2.700  0.00  0.00     0.010 A 
ATOM      3  C2  UNL d   1      -0.222  -1.149   1.524  0.00  0.00     0.041 A 
ATOM      4  C3  UNL d   1       0.164  -0.597   0.286  0.00  0.00    -0.075 A 
ATOM      5  S   UNL d   1      -0.167  -1.231  -1.282  0.00  0.00     0.015 SA
ATOM      6  C4  UNL d   1       0.650   0.050  -2.054  0.00  0.00     0.022 A 
ATOM      7  C5  UNL d   1       1.168   0.948  -1.152  0.00  0.00     0.026 A 
ATOM      8  C6  UNL d   1       0.897   0.590   0.212  0.00  0.00    -0.082 A 
ATOM      9  C7  UNL d   1       1.249   1.236   1.422  0.00  0.00     0.045 A 
ENDROOT
TORSDOF 0
ENDMDL
