MODEL 1
REMARK minimizedAffinity -2.03412986
REMARK minimizedRMSD -1
REMARK  0 active torsions:
REMARK  status: ('A' for Active; 'I' for Inactive)
ROOT
ATOM      1  C   UNL d   1       3.750  -1.541   2.351  0.00  0.00     0.077 C 
ATOM      2  C1  UNL d   1       2.497  -1.763   1.557  0.00  0.00    -0.074 A 
ATOM      3  C2  UNL d   1       1.851  -3.003   1.567  0.00  0.00    -0.005 A 
ATOM      4  C3  UNL d   1       0.681  -3.193   0.831  0.00  0.00     0.006 A 
ATOM      5  C4  UNL d   1       0.147  -2.145   0.079  0.00  0.00    -0.005 A 
ATOM      6  C5  UNL d   1       0.779  -0.898   0.058  0.00  0.00    -0.074 A 
ATOM      7  C6  UNL d   1       0.213   0.241  -0.737  0.00  0.00     0.077 C 
ATOM      8  C7  UNL d   1       1.950  -0.714   0.806  0.00  0.00    -0.001 A 
ENDROOT
TORSDOF 0
ENDMDL
