MODEL 1
REMARK minimizedAffinity -2.77671695
REMARK minimizedRMSD -1
REMARK  0 active torsions:
REMARK  status: ('A' for Active; 'I' for Inactive)
ROOT
ATOM      1  C   UNL d   1       3.592  -1.034   1.100  0.00  0.00     0.077 C 
ATOM      2  C1  UNL d   1       2.159  -1.282   0.731  0.00  0.00    -0.074 A 
ATOM      3  C2  UNL d   1       1.628  -2.576   0.737  0.00  0.00    -0.005 A 
ATOM      4  C3  UNL d   1       0.292  -2.789   0.400  0.00  0.00     0.006 A 
ATOM      5  C4  UNL d   1      -0.526  -1.713   0.055  0.00  0.00    -0.005 A 
ATOM      6  C5  UNL d   1      -0.013  -0.412   0.044  0.00  0.00    -0.074 A 
ATOM      7  C6  UNL d   1      -0.882   0.757  -0.315  0.00  0.00     0.077 C 
ATOM      8  C7  UNL d   1       1.329  -0.205   0.390  0.00  0.00    -0.001 A 
ENDROOT
TORSDOF 0
ENDMDL
