MODEL 1
REMARK minimizedAffinity -3.82233548
REMARK minimizedRMSD -1
REMARK  0 active torsions:
REMARK  status: ('A' for Active; 'I' for Inactive)
ROOT
ATOM      1  C   UNL d   1       1.307  -3.327   1.236  0.00  0.00     0.077 C 
ATOM      2  C1  UNL d   1       1.407  -1.948   0.657  0.00  0.00    -0.074 A 
ATOM      3  C2  UNL d   1       2.651  -1.382   0.358  0.00  0.00    -0.005 A 
ATOM      4  C3  UNL d   1       2.728  -0.101  -0.189  0.00  0.00     0.006 A 
ATOM      5  C4  UNL d   1       1.564   0.626  -0.442  0.00  0.00    -0.005 A 
ATOM      6  C5  UNL d   1       0.312   0.076  -0.151  0.00  0.00    -0.074 A 
ATOM      7  C6  UNL d   1      -0.949   0.840  -0.427  0.00  0.00     0.077 C 
ATOM      8  C7  UNL d   1       0.242  -1.214   0.392  0.00  0.00    -0.001 A 
ENDROOT
TORSDOF 0
ENDMDL
