MODEL 1
REMARK minimizedAffinity -4.53310871
REMARK minimizedRMSD -1
REMARK  0 active torsions:
REMARK  status: ('A' for Active; 'I' for Inactive)
ROOT
ATOM      1  C   UNL d   1       1.261  -2.788   1.120  0.00  0.00     0.077 C 
ATOM      2  C1  UNL d   1       1.279  -1.423   0.498  0.00  0.00    -0.074 A 
ATOM      3  C2  UNL d   1       2.487  -0.778   0.216  0.00  0.00    -0.005 A 
ATOM      4  C3  UNL d   1       2.488   0.487  -0.371  0.00  0.00     0.006 A 
ATOM      5  C4  UNL d   1       1.283   1.119  -0.681  0.00  0.00    -0.005 A 
ATOM      6  C5  UNL d   1       0.065   0.489  -0.406  0.00  0.00    -0.074 A 
ATOM      7  C6  UNL d   1      -1.239   1.150  -0.742  0.00  0.00     0.077 C 
ATOM      8  C7  UNL d   1       0.073  -0.786   0.177  0.00  0.00    -0.001 A 
ENDROOT
TORSDOF 0
ENDMDL
