MODEL 1
REMARK minimizedAffinity -0.475529641
REMARK minimizedRMSD -1
REMARK  0 active torsions:
REMARK  status: ('A' for Active; 'I' for Inactive)
ROOT
ATOM      1  C   UNL d   1      -1.401  -0.584   1.714  0.00  0.00     0.077 C 
ATOM      2  C1  UNL d   1      -0.128  -0.400   0.943  0.00  0.00    -0.074 A 
ATOM      3  C2  UNL d   1      -0.137   0.167  -0.336  0.00  0.00    -0.005 A 
ATOM      4  C3  UNL d   1       1.056   0.340  -1.037  0.00  0.00     0.006 A 
ATOM      5  C4  UNL d   1       2.269  -0.050  -0.468  0.00  0.00    -0.005 A 
ATOM      6  C5  UNL d   1       2.298  -0.617   0.810  0.00  0.00    -0.074 A 
ATOM      7  C6  UNL d   1       3.594  -1.033   1.440  0.00  0.00     0.077 C 
ATOM      8  C7  UNL d   1       1.096  -0.782   1.511  0.00  0.00    -0.001 A 
ENDROOT
TORSDOF 0
ENDMDL
