MODEL 1
REMARK minimizedAffinity -2.986022
REMARK minimizedRMSD -1
REMARK  0 active torsions:
REMARK  status: ('A' for Active; 'I' for Inactive)
ROOT
ATOM      1  C   UNL d   1       3.590  -1.140   2.023  0.00  0.00     0.077 C 
ATOM      2  C1  UNL d   1       2.251  -1.404   1.400  0.00  0.00    -0.074 A 
ATOM      3  C2  UNL d   1       1.642  -2.658   1.510  0.00  0.00    -0.005 A 
ATOM      4  C3  UNL d   1       0.392  -2.886   0.933  0.00  0.00     0.006 A 
ATOM      5  C4  UNL d   1      -0.259  -1.864   0.241  0.00  0.00    -0.005 A 
ATOM      6  C5  UNL d   1       0.335  -0.604   0.121  0.00  0.00    -0.074 A 
ATOM      7  C6  UNL d   1      -0.356   0.508  -0.611  0.00  0.00     0.077 C 
ATOM      8  C7  UNL d   1       1.587  -0.381   0.710  0.00  0.00    -0.001 A 
ENDROOT
TORSDOF 0
ENDMDL
