MODEL 1
REMARK minimizedAffinity -4.62788677
REMARK minimizedRMSD -1
REMARK  0 active torsions:
REMARK  status: ('A' for Active; 'I' for Inactive)
ROOT
ATOM      1  C   UNL d   1      -2.061   0.921   1.532  0.00  0.00     0.077 C 
ATOM      2  C1  UNL d   1      -0.733   0.370   1.104  0.00  0.00    -0.074 A 
ATOM      3  C2  UNL d   1       0.190   1.167   0.420  0.00  0.00    -0.005 A 
ATOM      4  C3  UNL d   1       1.424   0.643   0.037  0.00  0.00     0.006 A 
ATOM      5  C4  UNL d   1       1.748  -0.682   0.333  0.00  0.00    -0.005 A 
ATOM      6  C5  UNL d   1       0.838  -1.494   1.017  0.00  0.00    -0.074 A 
ATOM      7  C6  UNL d   1       1.173  -2.917   1.352  0.00  0.00     0.077 C 
ATOM      8  C7  UNL d   1      -0.398  -0.958   1.405  0.00  0.00    -0.001 A 
ENDROOT
TORSDOF 0
ENDMDL
