MODEL 1
REMARK minimizedAffinity -4.32068968
REMARK minimizedRMSD -1
REMARK  0 active torsions:
REMARK  status: ('A' for Active; 'I' for Inactive)
ROOT
ATOM      1  C   UNL d   1       1.504  -3.220   0.746  0.00  0.00     0.077 C 
ATOM      2  C1  UNL d   1       1.162  -1.792   0.441  0.00  0.00    -0.074 A 
ATOM      3  C2  UNL d   1      -0.158  -1.337   0.521  0.00  0.00    -0.005 A 
ATOM      4  C3  UNL d   1      -0.460  -0.003   0.244  0.00  0.00     0.006 A 
ATOM      5  C4  UNL d   1       0.553   0.886  -0.116  0.00  0.00    -0.005 A 
ATOM      6  C5  UNL d   1       1.879   0.449  -0.200  0.00  0.00    -0.074 A 
ATOM      7  C6  UNL d   1       2.981   1.395  -0.575  0.00  0.00     0.077 C 
ATOM      8  C7  UNL d   1       2.175  -0.890   0.087  0.00  0.00    -0.001 A 
ENDROOT
TORSDOF 0
ENDMDL
