MODEL 1
REMARK minimizedAffinity -4.2164073
REMARK minimizedRMSD -1
REMARK  0 active torsions:
REMARK  status: ('A' for Active; 'I' for Inactive)
ROOT
ATOM      1  C   UNL d   1       3.936  -0.595   1.922  0.00  0.00     0.077 C 
ATOM      2  C1  UNL d   1       2.656  -0.879   1.194  0.00  0.00    -0.074 A 
ATOM      3  C2  UNL d   1       2.128  -2.173   1.144  0.00  0.00    -0.005 A 
ATOM      4  C3  UNL d   1       0.932  -2.420   0.471  0.00  0.00     0.006 A 
ATOM      5  C4  UNL d   1       0.252  -1.376  -0.159  0.00  0.00    -0.005 A 
ATOM      6  C5  UNL d   1       0.764  -0.076  -0.119  0.00  0.00    -0.074 A 
ATOM      7  C6  UNL d   1       0.041   1.059  -0.782  0.00  0.00     0.077 C 
ATOM      8  C7  UNL d   1       1.963   0.165   0.565  0.00  0.00    -0.001 A 
ENDROOT
TORSDOF 0
ENDMDL
