MODEL 1
REMARK minimizedAffinity -3.67501044
REMARK minimizedRMSD -1
REMARK  0 active torsions:
REMARK  status: ('A' for Active; 'I' for Inactive)
ROOT
ATOM      1  C   UNL d   1       3.659  -1.150   2.119  0.00  0.00     0.077 C 
ATOM      2  C1  UNL d   1       2.411  -1.341   1.310  0.00  0.00    -0.074 A 
ATOM      3  C2  UNL d   1       1.860  -2.614   1.129  0.00  0.00    -0.005 A 
ATOM      4  C3  UNL d   1       0.693  -2.776   0.382  0.00  0.00     0.006 A 
ATOM      5  C4  UNL d   1       0.066  -1.668  -0.190  0.00  0.00    -0.005 A 
ATOM      6  C5  UNL d   1       0.602  -0.388  -0.019  0.00  0.00    -0.074 A 
ATOM      7  C6  UNL d   1      -0.064   0.815  -0.619  0.00  0.00     0.077 C 
ATOM      8  C7  UNL d   1       1.771  -0.233   0.739  0.00  0.00    -0.001 A 
ENDROOT
TORSDOF 0
ENDMDL
