MODEL 1
REMARK minimizedAffinity -2.70143819
REMARK minimizedRMSD -1
REMARK  0 active torsions:
REMARK  status: ('A' for Active; 'I' for Inactive)
ROOT
ATOM      1  C   UNL d   1      -0.701   1.053  -1.127  0.00  0.00     0.077 C 
ATOM      2  C1  UNL d   1      -0.234  -0.109  -0.300  0.00  0.00    -0.074 A 
ATOM      3  C2  UNL d   1       1.048  -0.641  -0.468  0.00  0.00    -0.005 A 
ATOM      4  C3  UNL d   1       1.472  -1.715   0.314  0.00  0.00     0.006 A 
ATOM      5  C4  UNL d   1       0.619  -2.267   1.271  0.00  0.00    -0.005 A 
ATOM      6  C5  UNL d   1      -0.667  -1.747   1.454  0.00  0.00    -0.074 A 
ATOM      7  C6  UNL d   1      -1.593  -2.322   2.484  0.00  0.00     0.077 C 
ATOM      8  C7  UNL d   1      -1.083  -0.663   0.668  0.00  0.00    -0.001 A 
ENDROOT
TORSDOF 0
ENDMDL
