MODEL 1
REMARK minimizedAffinity -3.86828065
REMARK minimizedRMSD -1
REMARK  0 active torsions:
REMARK  status: ('A' for Active; 'I' for Inactive)
ROOT
ATOM      1  C   UNL d   1       3.571  -0.702   0.425  0.00  0.00     0.077 C 
ATOM      2  C1  UNL d   1       2.097  -0.982   0.443  0.00  0.00    -0.074 A 
ATOM      3  C2  UNL d   1       1.612  -2.256   0.754  0.00  0.00    -0.005 A 
ATOM      4  C3  UNL d   1       0.238  -2.499   0.777  0.00  0.00     0.006 A 
ATOM      5  C4  UNL d   1      -0.662  -1.472   0.490  0.00  0.00    -0.005 A 
ATOM      6  C5  UNL d   1      -0.195  -0.191   0.178  0.00  0.00    -0.074 A 
ATOM      7  C6  UNL d   1      -1.149   0.926  -0.123  0.00  0.00     0.077 C 
ATOM      8  C7  UNL d   1       1.187   0.047   0.164  0.00  0.00    -0.001 A 
ENDROOT
TORSDOF 0
ENDMDL
