MODEL 1
REMARK minimizedAffinity -4.52850437
REMARK minimizedRMSD -1
REMARK  0 active torsions:
REMARK  status: ('A' for Active; 'I' for Inactive)
ROOT
ATOM      1  C   UNL d   1      -0.881   1.609  -1.005  0.00  0.00     0.077 C 
ATOM      2  C1  UNL d   1      -0.779   0.484  -0.019  0.00  0.00    -0.074 A 
ATOM      3  C2  UNL d   1      -1.717   0.341   1.009  0.00  0.00    -0.005 A 
ATOM      4  C3  UNL d   1      -1.615  -0.715   1.913  0.00  0.00     0.006 A 
ATOM      5  C4  UNL d   1      -0.575  -1.639   1.800  0.00  0.00    -0.005 A 
ATOM      6  C5  UNL d   1       0.371  -1.514   0.778  0.00  0.00    -0.074 A 
ATOM      7  C6  UNL d   1       1.489  -2.504   0.636  0.00  0.00     0.077 C 
ATOM      8  C7  UNL d   1       0.258  -0.453  -0.131  0.00  0.00    -0.001 A 
ENDROOT
TORSDOF 0
ENDMDL
