MODEL 1
REMARK minimizedAffinity -4.33022785
REMARK minimizedRMSD -1
REMARK  0 active torsions:
REMARK  status: ('A' for Active; 'I' for Inactive)
ROOT
ATOM      1  C   UNL d   1      -1.099   0.714   0.030  0.00  0.00     0.077 C 
ATOM      2  C1  UNL d   1      -1.482   1.242  -1.321  0.00  0.00    -0.074 A 
ATOM      3  C2  UNL d   1      -2.669   0.838  -1.940  0.00  0.00    -0.005 A 
ATOM      4  C3  UNL d   1      -3.016   1.344  -3.192  0.00  0.00     0.006 A 
ATOM      5  C4  UNL d   1      -2.182   2.259  -3.837  0.00  0.00    -0.005 A 
ATOM      6  C5  UNL d   1      -0.992   2.676  -3.232  0.00  0.00    -0.074 A 
ATOM      7  C6  UNL d   1      -0.089   3.665  -3.906  0.00  0.00     0.077 C 
ATOM      8  C7  UNL d   1      -0.653   2.167  -1.971  0.00  0.00    -0.001 A 
ENDROOT
TORSDOF 0
ENDMDL
