MODEL 1
REMARK minimizedAffinity -1.47078061
REMARK minimizedRMSD -1
REMARK  0 active torsions:
REMARK  status: ('A' for Active; 'I' for Inactive)
ROOT
ATOM      1  C   UNL d   1       1.764  -3.190   2.505  0.00  0.00     0.077 C 
ATOM      2  C1  UNL d   1       0.614  -2.318   2.098  0.00  0.00    -0.074 A 
ATOM      3  C2  UNL d   1      -0.547  -2.250   2.875  0.00  0.00    -0.005 A 
ATOM      4  C3  UNL d   1      -1.605  -1.427   2.489  0.00  0.00     0.006 A 
ATOM      5  C4  UNL d   1      -1.513  -0.665   1.324  0.00  0.00    -0.005 A 
ATOM      6  C5  UNL d   1      -0.360  -0.719   0.534  0.00  0.00    -0.074 A 
ATOM      7  C6  UNL d   1      -0.241   0.101  -0.716  0.00  0.00     0.077 C 
ATOM      8  C7  UNL d   1       0.701  -1.543   0.933  0.00  0.00    -0.001 A 
ENDROOT
TORSDOF 0
ENDMDL
