MODEL 1
REMARK minimizedAffinity -4.81408405
REMARK minimizedRMSD -1
REMARK  0 active torsions:
REMARK  status: ('A' for Active; 'I' for Inactive)
ROOT
ATOM      1  C2' OXE d   1      -0.618   0.687  -0.087  0.00  0.00     0.078 C 
ATOM      2  C1' OXE d   1       1.996   1.710  -0.048  0.00  0.00     0.078 C 
ATOM      3  C1  OXE d   1       1.827   0.212  -0.060  0.00  0.00    -0.078 A 
ATOM      4  C2  OXE d   1       0.545  -0.281  -0.031  0.00  0.00    -0.078 A 
ATOM      5  C3  OXE d   1       0.332  -1.655  -0.096  0.00  0.00     0.003 A 
ATOM      6  C4  OXE d   1       1.413  -2.543  -0.034  0.00  0.00    -0.002 A 
ATOM      7  C5  OXE d   1       2.727  -2.063  -0.022  0.00  0.00    -0.002 A 
ATOM      8  C6  OXE d   1       2.952  -0.692  -0.077  0.00  0.00     0.003 A 
ENDROOT
TORSDOF 0
ENDMDL
