MODEL 1
REMARK minimizedAffinity -3.3305161
REMARK minimizedRMSD -1
REMARK  0 active torsions:
REMARK  status: ('A' for Active; 'I' for Inactive)
ROOT
ATOM      1  C2' OXE d   1       1.799  -1.504   0.015  0.00  0.00     0.078 C 
ATOM      2  C1' OXE d   1       1.572   1.292  -0.091  0.00  0.00     0.078 C 
ATOM      3  C1  OXE d   1       0.341   0.499   0.273  0.00  0.00    -0.078 A 
ATOM      4  C2  OXE d   1       0.450  -0.871   0.277  0.00  0.00    -0.078 A 
ATOM      5  C3  OXE d   1      -0.640  -1.648   0.660  0.00  0.00     0.003 A 
ATOM      6  C4  OXE d   1      -1.887  -1.055   0.891  0.00  0.00    -0.002 A 
ATOM      7  C5  OXE d   1      -2.029   0.337   0.853  0.00  0.00    -0.002 A 
ATOM      8  C6  OXE d   1      -0.917   1.128   0.588  0.00  0.00     0.003 A 
ENDROOT
TORSDOF 0
ENDMDL
