MODEL 1
REMARK minimizedAffinity -0.24096483
REMARK minimizedRMSD -1
REMARK  0 active torsions:
REMARK  status: ('A' for Active; 'I' for Inactive)
ROOT
ATOM      1  C2' OXE d   1      -1.845   0.529   0.218  0.00  0.00     0.078 C 
ATOM      2  C1' OXE d   1       0.513   1.964  -0.294  0.00  0.00     0.078 C 
ATOM      3  C1  OXE d   1       0.590   0.457  -0.302  0.00  0.00    -0.078 A 
ATOM      4  C2  OXE d   1      -0.558  -0.236  -0.005  0.00  0.00    -0.078 A 
ATOM      5  C3  OXE d   1      -0.555  -1.627  -0.052  0.00  0.00     0.003 A 
ATOM      6  C4  OXE d   1       0.642  -2.327  -0.250  0.00  0.00    -0.002 A 
ATOM      7  C5  OXE d   1       1.831  -1.640  -0.515  0.00  0.00    -0.002 A 
ATOM      8  C6  OXE d   1       1.813  -0.251  -0.587  0.00  0.00     0.003 A 
ENDROOT
TORSDOF 0
ENDMDL
