MODEL 1
REMARK minimizedAffinity -3.14035249
REMARK minimizedRMSD -1
REMARK  0 active torsions:
REMARK  status: ('A' for Active; 'I' for Inactive)
ROOT
ATOM      1  C2' OXE d   1      -1.109   0.562  -0.130  0.00  0.00     0.078 C 
ATOM      2  C1' OXE d   1       1.214   2.137  -0.186  0.00  0.00     0.078 C 
ATOM      3  C1  OXE d   1       1.380   0.638  -0.204  0.00  0.00    -0.078 A 
ATOM      4  C2  OXE d   1       0.240  -0.125  -0.129  0.00  0.00    -0.078 A 
ATOM      5  C3  OXE d   1       0.333  -1.512  -0.197  0.00  0.00     0.003 A 
ATOM      6  C4  OXE d   1       1.585  -2.140  -0.185  0.00  0.00    -0.002 A 
ATOM      7  C5  OXE d   1       2.760  -1.381  -0.222  0.00  0.00    -0.002 A 
ATOM      8  C6  OXE d   1       2.674   0.006  -0.274  0.00  0.00     0.003 A 
ENDROOT
TORSDOF 0
ENDMDL
