MODEL 1
REMARK minimizedAffinity -0.655945241
REMARK minimizedRMSD -1
REMARK  0 active torsions:
REMARK  status: ('A' for Active; 'I' for Inactive)
ROOT
ATOM      1  C2' OXE d   1      -0.740  -1.213   0.932  0.00  0.00     0.078 C 
ATOM      2  C1' OXE d   1      -1.991   0.880  -0.458  0.00  0.00     0.078 C 
ATOM      3  C1  OXE d   1      -0.501   0.970  -0.245  0.00  0.00    -0.078 A 
ATOM      4  C2  OXE d   1       0.096  -0.036   0.477  0.00  0.00    -0.078 A 
ATOM      5  C3  OXE d   1       1.477  -0.030   0.655  0.00  0.00     0.003 A 
ATOM      6  C4  OXE d   1       2.241   1.067   0.239  0.00  0.00    -0.002 A 
ATOM      7  C5  OXE d   1       1.646   2.121  -0.463  0.00  0.00    -0.002 A 
ATOM      8  C6  OXE d   1       0.287   2.067  -0.750  0.00  0.00     0.003 A 
ENDROOT
TORSDOF 0
ENDMDL
