MODEL 1
REMARK minimizedAffinity -2.73369265
REMARK minimizedRMSD -1
REMARK  0 active torsions:
REMARK  status: ('A' for Active; 'I' for Inactive)
ROOT
ATOM      1  C2' OXE d   1      -1.173   1.053  -0.410  0.00  0.00     0.078 C 
ATOM      2  C1' OXE d   1       1.381   2.136   0.022  0.00  0.00     0.078 C 
ATOM      3  C1  OXE d   1       1.240   0.635   0.046  0.00  0.00    -0.078 A 
ATOM      4  C2  OXE d   1      -0.021   0.115  -0.120  0.00  0.00    -0.078 A 
ATOM      5  C3  OXE d   1      -0.198  -1.265  -0.160  0.00  0.00     0.003 A 
ATOM      6  C4  OXE d   1       0.871  -2.125   0.119  0.00  0.00    -0.002 A 
ATOM      7  C5  OXE d   1       2.157  -1.615   0.330  0.00  0.00    -0.002 A 
ATOM      8  C6  OXE d   1       2.366  -0.242   0.255  0.00  0.00     0.003 A 
ENDROOT
TORSDOF 0
ENDMDL
