MODEL 1
REMARK minimizedAffinity 0.491586179
REMARK minimizedRMSD -1
REMARK  0 active torsions:
REMARK  status: ('A' for Active; 'I' for Inactive)
ROOT
ATOM      1  C2' OXE d   1       2.485  -1.738  -1.223  0.00  0.00     0.078 C 
ATOM      2  C1' OXE d   1      -0.218  -2.295  -0.711  0.00  0.00     0.078 C 
ATOM      3  C1  OXE d   1       0.233  -0.859  -0.623  0.00  0.00    -0.078 A 
ATOM      4  C2  OXE d   1       1.567  -0.601  -0.829  0.00  0.00    -0.078 A 
ATOM      5  C3  OXE d   1       2.027   0.713  -0.813  0.00  0.00     0.003 A 
ATOM      6  C4  OXE d   1       1.173   1.757  -0.437  0.00  0.00    -0.002 A 
ATOM      7  C5  OXE d   1      -0.181   1.512  -0.184  0.00  0.00    -0.002 A 
ATOM      8  C6  OXE d   1      -0.675   0.218  -0.314  0.00  0.00     0.003 A 
ENDROOT
TORSDOF 0
ENDMDL
