MODEL 1
REMARK minimizedAffinity -1.83878863
REMARK minimizedRMSD -1
REMARK  1 active torsions:
REMARK  status: ('A' for Active; 'I' for Inactive)
REMARK    1  A    between atoms: C3_4  and  O_7 
ROOT
ATOM      1  C   UNL d   1      -4.416  -5.624  -5.963  0.00  0.00    -0.033 A 
ATOM      2  C1  UNL d   1      -3.441  -5.259  -5.031  0.00  0.00     0.039 A 
ATOM      3  C2  UNL d   1      -3.741  -5.262  -3.667  0.00  0.00    -0.080 A 
ATOM      4  C3  UNL d   1      -5.017  -5.632  -3.249  0.00  0.00     0.150 A 
ATOM      5  C4  UNL d   1      -5.991  -6.000  -4.171  0.00  0.00    -0.007 A 
ATOM      6  C5  UNL d   1      -5.690  -5.995  -5.533  0.00  0.00     0.039 A 
ENDROOT
BRANCH   4   7
ATOM      7  O   UNL d   1      -5.357  -5.646  -1.929  0.00  0.00    -0.526 OA
ATOM      8  H5  UNL d   1      -4.594  -5.341  -1.411  0.00  0.00     0.418 HD
ENDBRANCH   4   7
TORSDOF 1
ENDMDL
