MODEL 1
REMARK minimizedAffinity 9.87671471
REMARK minimizedRMSD -1
REMARK  1 active torsions:
REMARK  status: ('A' for Active; 'I' for Inactive)
REMARK    1  A    between atoms: C3_4  and  O_7 
ROOT
ATOM      1  C   UNL d   1      -1.492   2.077  -2.329  0.00  0.00    -0.033 A 
ATOM      2  C1  UNL d   1      -1.611   1.277  -1.190  0.00  0.00     0.039 A 
ATOM      3  C2  UNL d   1      -2.799   0.589  -0.939  0.00  0.00    -0.080 A 
ATOM      4  C3  UNL d   1      -3.860   0.709  -1.832  0.00  0.00     0.150 A 
ATOM      5  C4  UNL d   1      -3.748   1.501  -2.970  0.00  0.00    -0.007 A 
ATOM      6  C5  UNL d   1      -2.560   2.188  -3.219  0.00  0.00     0.039 A 
ENDROOT
BRANCH   4   7
ATOM      7  O   UNL d   1      -5.042   0.061  -1.627  0.00  0.00    -0.526 OA
ATOM      8  H5  UNL d   1      -4.984  -0.426  -0.787  0.00  0.00     0.418 HD
ENDBRANCH   4   7
TORSDOF 1
ENDMDL
