MODEL 1
REMARK minimizedAffinity 4.08106184
REMARK minimizedRMSD -1
REMARK  1 active torsions:
REMARK  status: ('A' for Active; 'I' for Inactive)
REMARK    1  A    between atoms: C3_4  and  O_7 
ROOT
ATOM      1  C   UNL d   1       0.798   2.700   3.212  0.00  0.00    -0.033 A 
ATOM      2  C1  UNL d   1      -0.025   1.780   2.558  0.00  0.00     0.039 A 
ATOM      3  C2  UNL d   1      -0.350   1.965   1.213  0.00  0.00    -0.080 A 
ATOM      4  C3  UNL d   1       0.154   3.070   0.533  0.00  0.00     0.150 A 
ATOM      5  C4  UNL d   1       0.978   3.987   1.177  0.00  0.00    -0.007 A 
ATOM      6  C5  UNL d   1       1.301   3.802   2.521  0.00  0.00     0.039 A 
ENDROOT
BRANCH   4   7
ATOM      7  O   UNL d   1      -0.139   3.294  -0.779  0.00  0.00    -0.526 OA
ATOM      8  H5  UNL d   1      -0.740   2.595  -1.084  0.00  0.00     0.418 HD
ENDBRANCH   4   7
TORSDOF 1
ENDMDL
