MODEL 1
REMARK minimizedAffinity 8.01961708
REMARK minimizedRMSD -1
REMARK  1 active torsions:
REMARK  status: ('A' for Active; 'I' for Inactive)
REMARK    1  A    between atoms: C3_4  and  O_7 
ROOT
ATOM      1  C   UNL d   1       0.415   3.163   2.291  0.00  0.00    -0.033 A 
ATOM      2  C1  UNL d   1      -0.703   2.352   2.498  0.00  0.00     0.039 A 
ATOM      3  C2  UNL d   1      -0.541   1.037   2.939  0.00  0.00    -0.080 A 
ATOM      4  C3  UNL d   1       0.741   0.546   3.170  0.00  0.00     0.150 A 
ATOM      5  C4  UNL d   1       1.859   1.349   2.969  0.00  0.00    -0.007 A 
ATOM      6  C5  UNL d   1       1.695   2.662   2.528  0.00  0.00     0.039 A 
ENDROOT
BRANCH   4   7
ATOM      7  O   UNL d   1       0.949  -0.732   3.596  0.00  0.00    -0.526 OA
ATOM      8  H5  UNL d   1       0.088  -1.178   3.663  0.00  0.00     0.418 HD
ENDBRANCH   4   7
TORSDOF 1
ENDMDL
