MODEL 1
REMARK minimizedAffinity 0.791598499
REMARK minimizedRMSD -1
REMARK  1 active torsions:
REMARK  status: ('A' for Active; 'I' for Inactive)
REMARK    1  A    between atoms: C3_4  and  O_7 
ROOT
ATOM      1  C   UNL d   1      -5.989  -5.997  -4.651  0.00  0.00    -0.033 A 
ATOM      2  C1  UNL d   1      -5.471  -5.590  -5.882  0.00  0.00     0.039 A 
ATOM      3  C2  UNL d   1      -4.140  -5.179  -5.981  0.00  0.00    -0.080 A 
ATOM      4  C3  UNL d   1      -3.339  -5.181  -4.842  0.00  0.00     0.150 A 
ATOM      5  C4  UNL d   1      -3.847  -5.588  -3.613  0.00  0.00    -0.007 A 
ATOM      6  C5  UNL d   1      -5.176  -5.997  -3.517  0.00  0.00     0.039 A 
ENDROOT
BRANCH   4   7
ATOM      7  O   UNL d   1      -2.035  -4.784  -4.888  0.00  0.00    -0.526 OA
ATOM      8  H5  UNL d   1      -1.831  -4.502  -5.796  0.00  0.00     0.418 HD
ENDBRANCH   4   7
TORSDOF 1
ENDMDL
