MODEL 1
REMARK minimizedAffinity 10.588172
REMARK minimizedRMSD -1
REMARK  1 active torsions:
REMARK  status: ('A' for Active; 'I' for Inactive)
REMARK    1  A    between atoms: C3_4  and  O_7 
ROOT
ATOM      1  C   UNL d   1       3.730  -1.537  -0.368  0.00  0.00    -0.033 A 
ATOM      2  C1  UNL d   1       5.063  -1.650  -0.768  0.00  0.00     0.039 A 
ATOM      3  C2  UNL d   1       5.660  -2.908  -0.865  0.00  0.00    -0.080 A 
ATOM      4  C3  UNL d   1       4.914  -4.044  -0.561  0.00  0.00     0.150 A 
ATOM      5  C4  UNL d   1       3.585  -3.938  -0.165  0.00  0.00    -0.007 A 
ATOM      6  C5  UNL d   1       2.991  -2.681  -0.068  0.00  0.00     0.039 A 
ENDROOT
BRANCH   4   7
ATOM      7  O   UNL d   1       5.455  -5.293  -0.636  0.00  0.00    -0.526 OA
ATOM      8  H5  UNL d   1       6.388  -5.209  -0.894  0.00  0.00     0.418 HD
ENDBRANCH   4   7
TORSDOF 1
ENDMDL
