MODEL 1
REMARK minimizedAffinity -4.03484154
REMARK minimizedRMSD -1
REMARK  1 active torsions:
REMARK  status: ('A' for Active; 'I' for Inactive)
REMARK    1  A    between atoms: C3_4  and  O_7 
ROOT
ATOM      1  C   UNL d   1       4.153  -4.268  -1.856  0.00  0.00    -0.033 A 
ATOM      2  C1  UNL d   1       3.303  -3.161  -1.880  0.00  0.00     0.039 A 
ATOM      3  C2  UNL d   1       3.550  -2.071  -1.043  0.00  0.00    -0.080 A 
ATOM      4  C3  UNL d   1       4.648  -2.100  -0.189  0.00  0.00     0.150 A 
ATOM      5  C4  UNL d   1       5.501  -3.199  -0.162  0.00  0.00    -0.007 A 
ATOM      6  C5  UNL d   1       5.253  -4.287  -0.998  0.00  0.00     0.039 A 
ENDROOT
BRANCH   4   7
ATOM      7  O   UNL d   1       4.927  -1.062   0.650  0.00  0.00    -0.526 OA
ATOM      8  H5  UNL d   1       4.237  -0.387   0.543  0.00  0.00     0.418 HD
ENDBRANCH   4   7
TORSDOF 1
ENDMDL
