MODEL 1
REMARK minimizedAffinity 5.8920579
REMARK minimizedRMSD -1
REMARK  1 active torsions:
REMARK  status: ('A' for Active; 'I' for Inactive)
REMARK    1  A    between atoms: C3_4  and  O_7 
ROOT
ATOM      1  C   UNL d   1       4.586  -5.422  -3.190  0.00  0.00    -0.033 A 
ATOM      2  C1  UNL d   1       4.462  -4.240  -3.923  0.00  0.00     0.039 A 
ATOM      3  C2  UNL d   1       4.534  -3.004  -3.277  0.00  0.00    -0.080 A 
ATOM      4  C3  UNL d   1       4.732  -2.964  -1.900  0.00  0.00     0.150 A 
ATOM      5  C4  UNL d   1       4.861  -4.138  -1.164  0.00  0.00    -0.007 A 
ATOM      6  C5  UNL d   1       4.787  -5.370  -1.811  0.00  0.00     0.039 A 
ENDROOT
BRANCH   4   7
ATOM      7  O   UNL d   1       4.805  -1.782  -1.224  0.00  0.00    -0.526 OA
ATOM      8  H5  UNL d   1       4.671  -1.057  -1.857  0.00  0.00     0.418 HD
ENDBRANCH   4   7
TORSDOF 1
ENDMDL
