MODEL 1
REMARK minimizedAffinity -5.66430569
REMARK minimizedRMSD -1
REMARK  2 active torsions:
REMARK  status: ('A' for Active; 'I' for Inactive)
REMARK    1  A    between atoms: C1_2  and  C2_3 
REMARK    2  A    between atoms: C2_3  and  C3_4 
ROOT
ATOM      1  C3  UNL d   1       0.020   0.210   1.362  0.00  0.00    -0.075 A 
ATOM      2  C4  UNL d   1       1.282  -0.033   1.923  0.00  0.00     0.002 A 
ATOM      3  C5  UNL d   1       1.577   0.397   3.217  0.00  0.00     0.002 A 
ATOM      4  C6  UNL d   1       0.620   1.084   3.961  0.00  0.00    -0.004 A 
ATOM      5  C7  UNL d   1      -0.632   1.345   3.407  0.00  0.00     0.002 A 
ATOM      6  C8  UNL d   1      -0.931   0.911   2.114  0.00  0.00     0.002 A 
ENDROOT
BRANCH   1   7
ATOM      7  C2  UNL d   1      -0.314  -0.280  -0.027  0.00  0.00     0.056 C 
BRANCH   7   8
ATOM      8  C1  UNL d   1       0.897  -0.780  -0.821  0.00  0.00     0.007 C 
ATOM      9  C   UNL d   1       0.917  -0.285  -2.261  0.00  0.00     0.009 C 
ENDBRANCH   7   8
ENDBRANCH   1   7
TORSDOF 2
ENDMDL
