MODEL 1
REMARK minimizedAffinity -1.80812252
REMARK minimizedRMSD -1
REMARK  2 active torsions:
REMARK  status: ('A' for Active; 'I' for Inactive)
REMARK    1  A    between atoms: C1_2  and  C2_3 
REMARK    2  A    between atoms: C2_3  and  C3_4 
ROOT
ATOM      1  C3  UNL d   1       0.128  -0.598  -2.175  0.00  0.00    -0.075 A 
ATOM      2  C4  UNL d   1       1.339   0.031  -2.500  0.00  0.00     0.002 A 
ATOM      3  C5  UNL d   1       1.496   0.672  -3.729  0.00  0.00     0.002 A 
ATOM      4  C6  UNL d   1       0.452   0.685  -4.651  0.00  0.00    -0.004 A 
ATOM      5  C7  UNL d   1      -0.750   0.049  -4.345  0.00  0.00     0.002 A 
ATOM      6  C8  UNL d   1      -0.912  -0.590  -3.114  0.00  0.00     0.002 A 
ENDROOT
BRANCH   1   7
ATOM      7  C2  UNL d   1      -0.059  -1.268  -0.835  0.00  0.00     0.056 C 
BRANCH   7   8
ATOM      8  C1  UNL d   1      -1.243  -0.728  -0.027  0.00  0.00     0.007 C 
ATOM      9  C   UNL d   1      -0.861   0.406   0.914  0.00  0.00     0.009 C 
ENDBRANCH   7   8
ENDBRANCH   1   7
TORSDOF 2
ENDMDL
