MODEL 1
REMARK minimizedAffinity -5.19177103
REMARK minimizedRMSD -1
REMARK  2 active torsions:
REMARK  status: ('A' for Active; 'I' for Inactive)
REMARK    1  A    between atoms: C1_2  and  C2_3 
REMARK    2  A    between atoms: C2_3  and  C3_4 
ROOT
ATOM      1  C3  UNL d   1       0.786   0.185   1.088  0.00  0.00    -0.075 A 
ATOM      2  C4  UNL d   1       0.328   1.225   0.265  0.00  0.00     0.002 A 
ATOM      3  C5  UNL d   1      -0.053   0.970  -1.052  0.00  0.00     0.002 A 
ATOM      4  C6  UNL d   1       0.029  -0.322  -1.567  0.00  0.00    -0.004 A 
ATOM      5  C7  UNL d   1       0.499  -1.359  -0.764  0.00  0.00     0.002 A 
ATOM      6  C8  UNL d   1       0.876  -1.108   0.556  0.00  0.00     0.002 A 
ENDROOT
BRANCH   1   7
ATOM      7  C2  UNL d   1       1.172   0.449   2.524  0.00  0.00     0.056 C 
BRANCH   7   8
ATOM      8  C1  UNL d   1       0.026   0.983   3.389  0.00  0.00     0.007 C 
ATOM      9  C   UNL d   1      -1.165   0.037   3.459  0.00  0.00     0.009 C 
ENDBRANCH   7   8
ENDBRANCH   1   7
TORSDOF 2
ENDMDL
