MODEL 1
REMARK minimizedAffinity -3.67423844
REMARK minimizedRMSD -1
REMARK  2 active torsions:
REMARK  status: ('A' for Active; 'I' for Inactive)
REMARK    1  A    between atoms: C1_2  and  C2_3 
REMARK    2  A    between atoms: C2_3  and  C3_4 
ROOT
ATOM      1  C3  UNL d   1      -0.318  -0.077   0.743  0.00  0.00    -0.075 A 
ATOM      2  C4  UNL d   1      -0.174   0.649   1.934  0.00  0.00     0.002 A 
ATOM      3  C5  UNL d   1       0.998   0.552   2.685  0.00  0.00     0.002 A 
ATOM      4  C6  UNL d   1       2.035  -0.276   2.261  0.00  0.00    -0.004 A 
ATOM      5  C7  UNL d   1       1.896  -1.014   1.088  0.00  0.00     0.002 A 
ATOM      6  C8  UNL d   1       0.727  -0.916   0.332  0.00  0.00     0.002 A 
ENDROOT
BRANCH   1   7
ATOM      7  C2  UNL d   1      -1.571   0.046  -0.090  0.00  0.00     0.056 C 
BRANCH   7   8
ATOM      8  C1  UNL d   1      -2.488  -1.180  -0.020  0.00  0.00     0.007 C 
ATOM      9  C   UNL d   1      -3.782  -1.008  -0.806  0.00  0.00     0.009 C 
ENDBRANCH   7   8
ENDBRANCH   1   7
TORSDOF 2
ENDMDL
