MODEL 1
REMARK minimizedAffinity -5.92051554
REMARK minimizedRMSD -1
REMARK  2 active torsions:
REMARK  status: ('A' for Active; 'I' for Inactive)
REMARK    1  A    between atoms: C1_2  and  C2_3 
REMARK    2  A    between atoms: C2_3  and  C3_4 
ROOT
ATOM      1  C3  UNL d   1       0.122  -0.300   0.213  0.00  0.00    -0.075 A 
ATOM      2  C4  UNL d   1       0.891   0.452   1.113  0.00  0.00     0.002 A 
ATOM      3  C5  UNL d   1       0.275   1.220   2.102  0.00  0.00     0.002 A 
ATOM      4  C6  UNL d   1      -1.114   1.254   2.197  0.00  0.00    -0.004 A 
ATOM      5  C7  UNL d   1      -1.889   0.525   1.297  0.00  0.00     0.002 A 
ATOM      6  C8  UNL d   1      -1.275  -0.248   0.310  0.00  0.00     0.002 A 
ENDROOT
BRANCH   1   7
ATOM      7  C2  UNL d   1       0.782  -1.156  -0.841  0.00  0.00     0.056 C 
BRANCH   7   8
ATOM      8  C1  UNL d   1       0.270  -0.902  -2.262  0.00  0.00     0.007 C 
ATOM      9  C   UNL d   1       0.969   0.262  -2.953  0.00  0.00     0.009 C 
ENDBRANCH   7   8
ENDBRANCH   1   7
TORSDOF 2
ENDMDL
