MODEL 1
REMARK minimizedAffinity -5.02014637
REMARK minimizedRMSD -1
REMARK  2 active torsions:
REMARK  status: ('A' for Active; 'I' for Inactive)
REMARK    1  A    between atoms: C1_2  and  C2_3 
REMARK    2  A    between atoms: C2_3  and  C3_4 
ROOT
ATOM      1  C3  UNL d   1       0.627  -0.245  -0.112  0.00  0.00    -0.075 A 
ATOM      2  C4  UNL d   1      -0.289   0.442   0.698  0.00  0.00     0.002 A 
ATOM      3  C5  UNL d   1       0.021   0.735   2.027  0.00  0.00     0.002 A 
ATOM      4  C6  UNL d   1       1.243   0.338   2.564  0.00  0.00    -0.004 A 
ATOM      5  C7  UNL d   1       2.154  -0.359   1.774  0.00  0.00     0.002 A 
ATOM      6  C8  UNL d   1       1.849  -0.650   0.443  0.00  0.00     0.002 A 
ENDROOT
BRANCH   1   7
ATOM      7  C2  UNL d   1       0.310  -0.539  -1.558  0.00  0.00     0.056 C 
BRANCH   7   8
ATOM      8  C1  UNL d   1       1.278   0.109  -2.553  0.00  0.00     0.007 C 
ATOM      9  C   UNL d   1       0.836  -0.037  -4.003  0.00  0.00     0.009 C 
ENDBRANCH   7   8
ENDBRANCH   1   7
TORSDOF 2
ENDMDL
