MODEL 1
REMARK minimizedAffinity -4.60555363
REMARK minimizedRMSD -1
REMARK  2 active torsions:
REMARK  status: ('A' for Active; 'I' for Inactive)
REMARK    1  A    between atoms: C1_2  and  C2_3 
REMARK    2  A    between atoms: C2_3  and  C3_4 
ROOT
ATOM      1  C3  UNL d   1       0.229  -0.255  -0.825  0.00  0.00    -0.075 A 
ATOM      2  C4  UNL d   1      -0.968   0.216  -0.268  0.00  0.00     0.002 A 
ATOM      3  C5  UNL d   1      -1.002   0.684   1.046  0.00  0.00     0.002 A 
ATOM      4  C6  UNL d   1       0.155   0.677   1.821  0.00  0.00    -0.004 A 
ATOM      5  C7  UNL d   1       1.346   0.195   1.283  0.00  0.00     0.002 A 
ATOM      6  C8  UNL d   1       1.384  -0.270  -0.032  0.00  0.00     0.002 A 
ENDROOT
BRANCH   1   7
ATOM      7  C2  UNL d   1       0.279  -0.736  -2.256  0.00  0.00     0.056 C 
BRANCH   7   8
ATOM      8  C1  UNL d   1       1.351  -0.047  -3.108  0.00  0.00     0.007 C 
ATOM      9  C   UNL d   1       0.819   0.474  -4.436  0.00  0.00     0.009 C 
ENDBRANCH   7   8
ENDBRANCH   1   7
TORSDOF 2
ENDMDL
