MODEL 1
REMARK minimizedAffinity -6.12084389
REMARK minimizedRMSD -1
REMARK  0 active torsions:
REMARK  status: ('A' for Active; 'I' for Inactive)
ROOT
ATOM      1  C   UNL d   1       0.097  -0.162  -0.324  0.00  0.00     0.078 C 
ATOM      2  C1  UNL d   1      -0.682   0.971   0.275  0.00  0.00    -0.077 A 
ATOM      3  C2  UNL d   1      -0.559   2.274  -0.223  0.00  0.00    -0.001 A 
ATOM      4  C3  UNL d   1      -1.283   3.320   0.351  0.00  0.00     0.003 A 
ATOM      5  C4  UNL d   1      -2.133   3.075   1.427  0.00  0.00    -0.005 A 
ATOM      6  C5  UNL d   1      -2.260   1.782   1.931  0.00  0.00     0.003 A 
ATOM      7  C6  UNL d   1      -1.537   0.734   1.358  0.00  0.00    -0.001 A 
ENDROOT
TORSDOF 0
ENDMDL
