MODEL 1
REMARK minimizedAffinity -5.46798849
REMARK minimizedRMSD -1
REMARK  0 active torsions:
REMARK  status: ('A' for Active; 'I' for Inactive)
ROOT
ATOM      1  C   UNL d   1      -0.030  -0.127  -0.081  0.00  0.00     0.078 C 
ATOM      2  C1  UNL d   1      -0.755   1.184  -0.036  0.00  0.00    -0.077 A 
ATOM      3  C2  UNL d   1      -0.271   2.301  -0.727  0.00  0.00    -0.001 A 
ATOM      4  C3  UNL d   1      -0.951   3.518  -0.668  0.00  0.00     0.003 A 
ATOM      5  C4  UNL d   1      -2.119   3.631   0.083  0.00  0.00    -0.005 A 
ATOM      6  C5  UNL d   1      -2.608   2.526   0.776  0.00  0.00     0.003 A 
ATOM      7  C6  UNL d   1      -1.929   1.308   0.718  0.00  0.00    -0.001 A 
ENDROOT
TORSDOF 0
ENDMDL
