MODEL 1
REMARK minimizedAffinity -5.10464334
REMARK minimizedRMSD -1
REMARK  0 active torsions:
REMARK  status: ('A' for Active; 'I' for Inactive)
ROOT
ATOM      1  C   UNL d   1       0.156   3.571  -1.031  0.00  0.00     0.078 C 
ATOM      2  C1  UNL d   1      -0.492   2.622  -0.066  0.00  0.00    -0.077 A 
ATOM      3  C2  UNL d   1      -1.398   3.080   0.897  0.00  0.00    -0.001 A 
ATOM      4  C3  UNL d   1      -1.986   2.187   1.795  0.00  0.00     0.003 A 
ATOM      5  C4  UNL d   1      -1.673   0.831   1.738  0.00  0.00    -0.005 A 
ATOM      6  C5  UNL d   1      -0.770   0.366   0.784  0.00  0.00     0.003 A 
ATOM      7  C6  UNL d   1      -0.181   1.257  -0.114  0.00  0.00    -0.001 A 
ENDROOT
TORSDOF 0
ENDMDL
