MODEL 1
REMARK minimizedAffinity -2.36193871
REMARK minimizedRMSD -1
REMARK  0 active torsions:
REMARK  status: ('A' for Active; 'I' for Inactive)
ROOT
ATOM      1  C   UNL d   1       0.400   0.023  -0.014  0.00  0.00     0.078 C 
ATOM      2  C1  UNL d   1       0.400  -1.255  -0.797  0.00  0.00    -0.077 A 
ATOM      3  C2  UNL d   1       0.002  -1.279  -2.140  0.00  0.00    -0.001 A 
ATOM      4  C3  UNL d   1      -0.003  -2.478  -2.854  0.00  0.00     0.003 A 
ATOM      5  C4  UNL d   1       0.388  -3.663  -2.234  0.00  0.00    -0.005 A 
ATOM      6  C5  UNL d   1       0.783  -3.650  -0.898  0.00  0.00     0.003 A 
ATOM      7  C6  UNL d   1       0.788  -2.452  -0.182  0.00  0.00    -0.001 A 
ENDROOT
TORSDOF 0
ENDMDL
