MODEL 1
REMARK minimizedAffinity -4.42080116
REMARK minimizedRMSD -1
REMARK  0 active torsions:
REMARK  status: ('A' for Active; 'I' for Inactive)
ROOT
ATOM      1  C   UNL d   1      -0.090   3.548  -0.287  0.00  0.00     0.078 C 
ATOM      2  C1  UNL d   1      -0.273   2.201   0.346  0.00  0.00    -0.077 A 
ATOM      3  C2  UNL d   1      -0.832   2.075   1.624  0.00  0.00    -0.001 A 
ATOM      4  C3  UNL d   1      -0.987   0.815   2.205  0.00  0.00     0.003 A 
ATOM      5  C4  UNL d   1      -0.585  -0.327   1.517  0.00  0.00    -0.005 A 
ATOM      6  C5  UNL d   1      -0.026  -0.211   0.246  0.00  0.00     0.003 A 
ATOM      7  C6  UNL d   1       0.130   1.047  -0.337  0.00  0.00    -0.001 A 
ENDROOT
TORSDOF 0
ENDMDL
