MODEL 1
REMARK minimizedAffinity 0.377575636
REMARK minimizedRMSD -1
REMARK  0 active torsions:
REMARK  status: ('A' for Active; 'I' for Inactive)
ROOT
ATOM      1  C   UNL d   1       0.157  -0.409   0.801  0.00  0.00     0.078 C 
ATOM      2  C1  UNL d   1       0.451  -1.250  -0.405  0.00  0.00    -0.077 A 
ATOM      3  C2  UNL d   1       0.841  -0.664  -1.616  0.00  0.00    -0.001 A 
ATOM      4  C3  UNL d   1       1.102  -1.459  -2.733  0.00  0.00     0.003 A 
ATOM      5  C4  UNL d   1       0.974  -2.844  -2.652  0.00  0.00    -0.005 A 
ATOM      6  C5  UNL d   1       0.584  -3.436  -1.452  0.00  0.00     0.003 A 
ATOM      7  C6  UNL d   1       0.323  -2.643  -0.334  0.00  0.00    -0.001 A 
ENDROOT
TORSDOF 0
ENDMDL
