MODEL 1
REMARK minimizedAffinity -2.39972687
REMARK minimizedRMSD -1
REMARK  0 active torsions:
REMARK  status: ('A' for Active; 'I' for Inactive)
ROOT
ATOM      1  C   UNL d   1       0.022  -0.360   0.253  0.00  0.00     0.078 C 
ATOM      2  C1  UNL d   1       0.252  -1.451  -0.750  0.00  0.00    -0.077 A 
ATOM      3  C2  UNL d   1      -0.529  -2.613  -0.743  0.00  0.00    -0.001 A 
ATOM      4  C3  UNL d   1      -0.297  -3.625  -1.677  0.00  0.00     0.003 A 
ATOM      5  C4  UNL d   1       0.716  -3.485  -2.623  0.00  0.00    -0.005 A 
ATOM      6  C5  UNL d   1       1.500  -2.333  -2.636  0.00  0.00     0.003 A 
ATOM      7  C6  UNL d   1       1.270  -1.320  -1.704  0.00  0.00    -0.001 A 
ENDROOT
TORSDOF 0
ENDMDL
