MODEL 1
REMARK minimizedAffinity -2.58176208
REMARK minimizedRMSD -1
REMARK  0 active torsions:
REMARK  status: ('A' for Active; 'I' for Inactive)
ROOT
ATOM      1  C   UNL d   1       1.131  -0.539  -0.078  0.00  0.00     0.078 C 
ATOM      2  C1  UNL d   1       0.741  -1.752  -0.869  0.00  0.00    -0.077 A 
ATOM      3  C2  UNL d   1       0.285  -1.637  -2.188  0.00  0.00    -0.001 A 
ATOM      4  C3  UNL d   1      -0.083  -2.774  -2.909  0.00  0.00     0.003 A 
ATOM      5  C4  UNL d   1      -0.001  -4.034  -2.319  0.00  0.00    -0.005 A 
ATOM      6  C5  UNL d   1       0.449  -4.158  -1.006  0.00  0.00     0.003 A 
ATOM      7  C6  UNL d   1       0.818  -3.022  -0.283  0.00  0.00    -0.001 A 
ENDROOT
TORSDOF 0
ENDMDL
