MODEL 1
REMARK minimizedAffinity -5.71794748
REMARK minimizedRMSD -1
REMARK  0 active torsions:
REMARK  status: ('A' for Active; 'I' for Inactive)
ROOT
ATOM      1  C   UNL d   1       0.387   3.805  -0.834  0.00  0.00     0.078 C 
ATOM      2  C1  UNL d   1      -0.610   3.051  -0.006  0.00  0.00    -0.077 A 
ATOM      3  C2  UNL d   1      -1.714   3.699   0.561  0.00  0.00    -0.001 A 
ATOM      4  C3  UNL d   1      -2.629   2.986   1.337  0.00  0.00     0.003 A 
ATOM      5  C4  UNL d   1      -2.449   1.621   1.554  0.00  0.00    -0.005 A 
ATOM      6  C5  UNL d   1      -1.352   0.968   0.996  0.00  0.00     0.003 A 
ATOM      7  C6  UNL d   1      -0.436   1.680   0.220  0.00  0.00    -0.001 A 
ENDROOT
TORSDOF 0
ENDMDL
