MODEL 1
REMARK minimizedAffinity -5.80016565
REMARK minimizedRMSD -1
REMARK  0 active torsions:
REMARK  status: ('A' for Active; 'I' for Inactive)
ROOT
ATOM      1  C   UNL d   1       0.330   4.057  -0.799  0.00  0.00     0.078 C 
ATOM      2  C1  UNL d   1      -0.660   3.178  -0.095  0.00  0.00    -0.077 A 
ATOM      3  C2  UNL d   1      -0.383   1.827   0.146  0.00  0.00    -0.001 A 
ATOM      4  C3  UNL d   1      -1.319   1.019   0.794  0.00  0.00     0.003 A 
ATOM      5  C4  UNL d   1      -2.538   1.553   1.206  0.00  0.00    -0.005 A 
ATOM      6  C5  UNL d   1      -2.824   2.896   0.969  0.00  0.00     0.003 A 
ATOM      7  C6  UNL d   1      -1.890   3.705   0.321  0.00  0.00    -0.001 A 
ENDROOT
TORSDOF 0
ENDMDL
