MODEL 1
REMARK minimizedAffinity -2.26177073
REMARK minimizedRMSD -1
REMARK  0 active torsions:
REMARK  status: ('A' for Active; 'I' for Inactive)
ROOT
ATOM      1  C   UNL d   1      -1.230   1.732   1.861  0.00  0.00     0.078 C 
ATOM      2  C1  UNL d   1      -0.414   0.889   0.927  0.00  0.00    -0.077 A 
ATOM      3  C2  UNL d   1      -0.041  -0.416   1.272  0.00  0.00    -0.001 A 
ATOM      4  C3  UNL d   1       0.726  -1.186   0.397  0.00  0.00     0.003 A 
ATOM      5  C4  UNL d   1       1.129  -0.659  -0.829  0.00  0.00    -0.005 A 
ATOM      6  C5  UNL d   1       0.764   0.639  -1.180  0.00  0.00     0.003 A 
ATOM      7  C6  UNL d   1      -0.004   1.410  -0.307  0.00  0.00    -0.001 A 
ENDROOT
TORSDOF 0
ENDMDL
