MODEL 1
REMARK minimizedAffinity -4.92924261
REMARK minimizedRMSD -1
REMARK  0 active torsions:
REMARK  status: ('A' for Active; 'I' for Inactive)
ROOT
ATOM      1  C   UNL d   1       0.923   0.111  -1.034  0.00  0.00     0.078 C 
ATOM      2  C1  UNL d   1      -0.143   0.943  -0.385  0.00  0.00    -0.077 A 
ATOM      3  C2  UNL d   1      -0.739   0.541   0.817  0.00  0.00    -0.001 A 
ATOM      4  C3  UNL d   1      -1.737   1.320   1.405  0.00  0.00     0.003 A 
ATOM      5  C4  UNL d   1      -2.148   2.505   0.798  0.00  0.00    -0.005 A 
ATOM      6  C5  UNL d   1      -1.562   2.912  -0.399  0.00  0.00     0.003 A 
ATOM      7  C6  UNL d   1      -0.564   2.134  -0.989  0.00  0.00    -0.001 A 
ENDROOT
TORSDOF 0
ENDMDL
