MODEL 1
REMARK minimizedAffinity -3.46955466
REMARK minimizedRMSD -1
REMARK  0 active torsions:
REMARK  status: ('A' for Active; 'I' for Inactive)
ROOT
ATOM      1  C   UNL d   1       0.811  -0.906  -1.008  0.00  0.00     0.078 C 
ATOM      2  C1  UNL d   1       0.351   0.354  -0.339  0.00  0.00    -0.077 A 
ATOM      3  C2  UNL d   1      -0.334   0.314   0.882  0.00  0.00    -0.001 A 
ATOM      4  C3  UNL d   1      -0.764   1.495   1.489  0.00  0.00     0.003 A 
ATOM      5  C4  UNL d   1      -0.516   2.725   0.882  0.00  0.00    -0.005 A 
ATOM      6  C5  UNL d   1       0.162   2.774  -0.334  0.00  0.00     0.003 A 
ATOM      7  C6  UNL d   1       0.594   1.595  -0.942  0.00  0.00    -0.001 A 
ENDROOT
TORSDOF 0
ENDMDL
