MODEL 1
REMARK minimizedAffinity -4.73670483
REMARK minimizedRMSD -1
REMARK  0 active torsions:
REMARK  status: ('A' for Active; 'I' for Inactive)
ROOT
ATOM      1  C   UNL d   1       0.557  -0.313   0.466  0.00  0.00     0.078 C 
ATOM      2  C1  UNL d   1      -0.139   1.013   0.384  0.00  0.00    -0.077 A 
ATOM      3  C2  UNL d   1      -0.842   1.528   1.480  0.00  0.00    -0.001 A 
ATOM      4  C3  UNL d   1      -1.493   2.759   1.386  0.00  0.00     0.003 A 
ATOM      5  C4  UNL d   1      -1.448   3.486   0.198  0.00  0.00    -0.005 A 
ATOM      6  C5  UNL d   1      -0.752   2.981  -0.899  0.00  0.00     0.003 A 
ATOM      7  C6  UNL d   1      -0.101   1.749  -0.807  0.00  0.00    -0.001 A 
ENDROOT
TORSDOF 0
ENDMDL
