MODEL 1
REMARK minimizedAffinity -5.44062233
REMARK minimizedRMSD -1
REMARK  0 active torsions:
REMARK  status: ('A' for Active; 'I' for Inactive)
ROOT
ATOM      1  C   UNL d   1      -0.005  -0.575   0.693  0.00  0.00     0.078 C 
ATOM      2  C1  UNL d   1      -0.453   0.840   0.478  0.00  0.00    -0.077 A 
ATOM      3  C2  UNL d   1      -1.696   1.282   0.945  0.00  0.00    -0.001 A 
ATOM      4  C3  UNL d   1      -2.105   2.599   0.729  0.00  0.00     0.003 A 
ATOM      5  C4  UNL d   1      -1.276   3.485   0.043  0.00  0.00    -0.005 A 
ATOM      6  C5  UNL d   1      -0.037   3.054  -0.428  0.00  0.00     0.003 A 
ATOM      7  C6  UNL d   1       0.373   1.737  -0.212  0.00  0.00    -0.001 A 
ENDROOT
TORSDOF 0
ENDMDL
