MODEL 1
REMARK minimizedAffinity -5.9386487
REMARK minimizedRMSD -1
REMARK  0 active torsions:
REMARK  status: ('A' for Active; 'I' for Inactive)
ROOT
ATOM      1  C   UNL d   1       0.487   0.027  -0.062  0.00  0.00     0.078 C 
ATOM      2  C1  UNL d   1      -0.333   1.242   0.259  0.00  0.00    -0.077 A 
ATOM      3  C2  UNL d   1      -1.502   1.141   1.022  0.00  0.00    -0.001 A 
ATOM      4  C3  UNL d   1      -2.260   2.279   1.305  0.00  0.00     0.003 A 
ATOM      5  C4  UNL d   1      -1.858   3.524   0.827  0.00  0.00    -0.005 A 
ATOM      6  C5  UNL d   1      -0.697   3.634   0.065  0.00  0.00     0.003 A 
ATOM      7  C6  UNL d   1       0.063   2.497  -0.218  0.00  0.00    -0.001 A 
ENDROOT
TORSDOF 0
ENDMDL
