MODEL 1
REMARK minimizedAffinity 8.19499588
REMARK minimizedRMSD -1
REMARK  3 active torsions:
REMARK  status: ('A' for Active; 'I' for Inactive)
REMARK    1  A    between atoms: C3'_2  and  C2'_3 
REMARK    2  A    between atoms: C2'_3  and  C1'_4 
REMARK    3  A    between atoms: C1'_4  and  C1_5 
ROOT
ATOM      1  C1  N4B d   1       3.485   4.698  -2.707  0.00  0.00    -0.075 A 
ATOM      2  C2  N4B d   1       3.789   3.898  -3.831  0.00  0.00     0.002 A 
ATOM      3  C3  N4B d   1       4.976   4.075  -4.498  0.00  0.00     0.002 A 
ATOM      4  C4  N4B d   1       5.863   5.054  -4.074  0.00  0.00    -0.004 A 
ATOM      5  C5  N4B d   1       5.573   5.804  -2.972  0.00  0.00     0.002 A 
ATOM      6  C6  N4B d   1       4.386   5.634  -2.289  0.00  0.00     0.002 A 
ENDROOT
BRANCH   1   7
ATOM      7  C1' N4B d   1       2.163   4.599  -1.997  0.00  0.00     0.057 C 
BRANCH   7   8
ATOM      8  C2' N4B d   1       1.563   5.996  -1.860  0.00  0.00     0.009 C 
BRANCH   8   9
ATOM      9  C3' N4B d   1       0.064   5.996  -2.105  0.00  0.00     0.004 C 
ATOM     10  C4' N4B d   1      -0.732   6.000  -0.833  0.00  0.00     0.003 C 
ENDBRANCH   8   9
ENDBRANCH   7   8
ENDBRANCH   1   7
TORSDOF 3
ENDMDL
