MODEL 1
REMARK minimizedAffinity -1.58902371
REMARK minimizedRMSD -1
REMARK  3 active torsions:
REMARK  status: ('A' for Active; 'I' for Inactive)
REMARK    1  A    between atoms: C3'_2  and  C2'_3 
REMARK    2  A    between atoms: C2'_3  and  C1'_4 
REMARK    3  A    between atoms: C1'_4  and  C1_5 
ROOT
ATOM      1  C1  N4B d   1      -2.576   5.632  -4.452  0.00  0.00    -0.075 A 
ATOM      2  C2  N4B d   1      -1.396   5.082  -4.999  0.00  0.00     0.002 A 
ATOM      3  C3  N4B d   1      -0.280   4.931  -4.213  0.00  0.00     0.002 A 
ATOM      4  C4  N4B d   1      -0.315   5.339  -2.887  0.00  0.00    -0.004 A 
ATOM      5  C5  N4B d   1      -1.466   5.846  -2.360  0.00  0.00     0.002 A 
ATOM      6  C6  N4B d   1      -2.596   6.000  -3.138  0.00  0.00     0.002 A 
ENDROOT
BRANCH   1   7
ATOM      7  C1' N4B d   1      -3.794   5.896  -5.295  0.00  0.00     0.057 C 
BRANCH   7   8
ATOM      8  C2' N4B d   1      -5.019   5.989  -4.390  0.00  0.00     0.009 C 
BRANCH   8   9
ATOM      9  C3' N4B d   1      -4.746   5.426  -3.006  0.00  0.00     0.004 C 
ATOM     10  C4' N4B d   1      -5.990   4.945  -2.320  0.00  0.00     0.003 C 
ENDBRANCH   8   9
ENDBRANCH   7   8
ENDBRANCH   1   7
TORSDOF 3
ENDMDL
