MODEL 1
REMARK minimizedAffinity 14.7985849
REMARK minimizedRMSD -1
REMARK  3 active torsions:
REMARK  status: ('A' for Active; 'I' for Inactive)
REMARK    1  A    between atoms: C3'_2  and  C2'_3 
REMARK    2  A    between atoms: C2'_3  and  C1'_4 
REMARK    3  A    between atoms: C1'_4  and  C1_5 
ROOT
ATOM      1  C1  N4B d   1      -0.542  -4.745  -4.554  0.00  0.00    -0.075 A 
ATOM      2  C2  N4B d   1      -0.749  -5.744  -5.530  0.00  0.00     0.002 A 
ATOM      3  C3  N4B d   1      -2.017  -6.000  -5.992  0.00  0.00     0.002 A 
ATOM      4  C4  N4B d   1      -3.090  -5.286  -5.481  0.00  0.00    -0.004 A 
ATOM      5  C5  N4B d   1      -2.879  -4.305  -4.557  0.00  0.00     0.002 A 
ATOM      6  C6  N4B d   1      -1.609  -4.034  -4.087  0.00  0.00     0.002 A 
ENDROOT
BRANCH   1   7
ATOM      7  C1' N4B d   1       0.814  -4.488  -3.956  0.00  0.00     0.057 C 
BRANCH   7   8
ATOM      8  C2' N4B d   1       1.690  -5.722  -4.153  0.00  0.00     0.009 C 
BRANCH   8   9
ATOM      9  C3' N4B d   1       2.998  -5.619  -3.387  0.00  0.00     0.004 C 
ATOM     10  C4' N4B d   1       2.900  -4.720  -2.190  0.00  0.00     0.003 C 
ENDBRANCH   8   9
ENDBRANCH   7   8
ENDBRANCH   1   7
TORSDOF 3
ENDMDL
