MODEL 1
REMARK minimizedAffinity 10.3545027
REMARK minimizedRMSD -1
REMARK  3 active torsions:
REMARK  status: ('A' for Active; 'I' for Inactive)
REMARK    1  A    between atoms: C3'_2  and  C2'_3 
REMARK    2  A    between atoms: C2'_3  and  C1'_4 
REMARK    3  A    between atoms: C1'_4  and  C1_5 
ROOT
ATOM      1  C1  N4B d   1      -1.572  -0.700   2.012  0.00  0.00    -0.075 A 
ATOM      2  C2  N4B d   1      -1.524  -1.835   1.174  0.00  0.00     0.002 A 
ATOM      3  C3  N4B d   1      -0.542  -2.779   1.351  0.00  0.00     0.002 A 
ATOM      4  C4  N4B d   1       0.410  -2.600   2.344  0.00  0.00    -0.004 A 
ATOM      5  C5  N4B d   1       0.341  -1.514   3.166  0.00  0.00     0.002 A 
ATOM      6  C6  N4B d   1      -0.643  -0.560   3.002  0.00  0.00     0.002 A 
ENDROOT
BRANCH   1   7
ATOM      7  C1' N4B d   1      -2.575   0.401   1.802  0.00  0.00     0.057 C 
BRANCH   7   8
ATOM      8  C2' N4B d   1      -3.561  -0.021   0.717  0.00  0.00     0.009 C 
BRANCH   8   9
ATOM      9  C3' N4B d   1      -4.495   1.112   0.325  0.00  0.00     0.004 C 
ATOM     10  C4' N4B d   1      -5.876   0.636  -0.014  0.00  0.00     0.003 C 
ENDBRANCH   8   9
ENDBRANCH   7   8
ENDBRANCH   1   7
TORSDOF 3
ENDMDL
