MODEL 1
REMARK minimizedAffinity 5.99351072
REMARK minimizedRMSD -1
REMARK  3 active torsions:
REMARK  status: ('A' for Active; 'I' for Inactive)
REMARK    1  A    between atoms: C3'_2  and  C2'_3 
REMARK    2  A    between atoms: C2'_3  and  C1'_4 
REMARK    3  A    between atoms: C1'_4  and  C1_5 
ROOT
ATOM      1  C1  N4B d   1      -2.945  -0.154   1.132  0.00  0.00    -0.075 A 
ATOM      2  C2  N4B d   1      -2.290  -1.379   0.877  0.00  0.00     0.002 A 
ATOM      3  C3  N4B d   1      -0.956  -1.519   1.173  0.00  0.00     0.002 A 
ATOM      4  C4  N4B d   1      -0.255  -0.448   1.705  0.00  0.00    -0.004 A 
ATOM      5  C5  N4B d   1      -0.901   0.724   1.972  0.00  0.00     0.002 A 
ATOM      6  C6  N4B d   1      -2.242   0.878   1.683  0.00  0.00     0.002 A 
ENDROOT
BRANCH   1   7
ATOM      7  C1' N4B d   1      -4.380   0.075   0.746  0.00  0.00     0.057 C 
BRANCH   7   8
ATOM      8  C2' N4B d   1      -4.432   0.677  -0.655  0.00  0.00     0.009 C 
BRANCH   8   9
ATOM      9  C3' N4B d   1      -5.423   1.825  -0.744  0.00  0.00     0.004 C 
ATOM     10  C4' N4B d   1      -4.765   3.136  -1.060  0.00  0.00     0.003 C 
ENDBRANCH   8   9
ENDBRANCH   7   8
ENDBRANCH   1   7
TORSDOF 3
ENDMDL
