MODEL 1
REMARK minimizedAffinity 11.9727745
REMARK minimizedRMSD -1
REMARK  3 active torsions:
REMARK  status: ('A' for Active; 'I' for Inactive)
REMARK    1  A    between atoms: C3'_2  and  C2'_3 
REMARK    2  A    between atoms: C2'_3  and  C1'_4 
REMARK    3  A    between atoms: C1'_4  and  C1_5 
ROOT
ATOM      1  C1  N4B d   1      -1.988  -0.539   1.745  0.00  0.00    -0.075 A 
ATOM      2  C2  N4B d   1      -1.974   0.498   2.703  0.00  0.00     0.002 A 
ATOM      3  C3  N4B d   1      -2.982   1.431   2.721  0.00  0.00     0.002 A 
ATOM      4  C4  N4B d   1      -4.001   1.357   1.782  0.00  0.00    -0.004 A 
ATOM      5  C5  N4B d   1      -4.020   0.338   0.876  0.00  0.00     0.002 A 
ATOM      6  C6  N4B d   1      -3.016  -0.608   0.849  0.00  0.00     0.002 A 
ENDROOT
BRANCH   1   7
ATOM      7  C1' N4B d   1      -0.863  -1.531   1.631  0.00  0.00     0.057 C 
BRANCH   7   8
ATOM      8  C2' N4B d   1       0.063  -1.377   2.835  0.00  0.00     0.009 C 
BRANCH   8   9
ATOM      9  C3' N4B d   1       1.282  -2.278   2.732  0.00  0.00     0.004 C 
ATOM     10  C4' N4B d   1       1.210  -3.460   3.652  0.00  0.00     0.003 C 
ENDBRANCH   8   9
ENDBRANCH   7   8
ENDBRANCH   1   7
TORSDOF 3
ENDMDL
