MODEL 1
REMARK minimizedAffinity 7.07469177
REMARK minimizedRMSD -1
REMARK  3 active torsions:
REMARK  status: ('A' for Active; 'I' for Inactive)
REMARK    1  A    between atoms: C3'_2  and  C2'_3 
REMARK    2  A    between atoms: C2'_3  and  C1'_4 
REMARK    3  A    between atoms: C1'_4  and  C1_5 
ROOT
ATOM      1  C1  N4B d   1       3.698   2.603   0.264  0.00  0.00    -0.075 A 
ATOM      2  C2  N4B d   1       4.858   2.607  -0.542  0.00  0.00     0.002 A 
ATOM      3  C3  N4B d   1       6.000   3.229  -0.098  0.00  0.00     0.002 A 
ATOM      4  C4  N4B d   1       5.999   3.866   1.134  0.00  0.00    -0.004 A 
ATOM      5  C5  N4B d   1       4.882   3.835   1.917  0.00  0.00     0.002 A 
ATOM      6  C6  N4B d   1       3.729   3.211   1.485  0.00  0.00     0.002 A 
ENDROOT
BRANCH   1   7
ATOM      7  C1' N4B d   1       2.401   2.011  -0.216  0.00  0.00     0.057 C 
BRANCH   7   8
ATOM      8  C2' N4B d   1       2.504   1.723  -1.710  0.00  0.00     0.009 C 
BRANCH   8   9
ATOM      9  C3' N4B d   1       1.840   2.804  -2.545  0.00  0.00     0.004 C 
ATOM     10  C4' N4B d   1       2.723   3.311  -3.647  0.00  0.00     0.003 C 
ENDBRANCH   8   9
ENDBRANCH   7   8
ENDBRANCH   1   7
TORSDOF 3
ENDMDL
