MODEL 1
REMARK minimizedAffinity 10.2702427
REMARK minimizedRMSD -1
REMARK  3 active torsions:
REMARK  status: ('A' for Active; 'I' for Inactive)
REMARK    1  A    between atoms: C3'_2  and  C2'_3 
REMARK    2  A    between atoms: C2'_3  and  C1'_4 
REMARK    3  A    between atoms: C1'_4  and  C1_5 
ROOT
ATOM      1  C1  N4B d   1       3.447   3.618  -3.642  0.00  0.00    -0.075 A 
ATOM      2  C2  N4B d   1       4.359   4.514  -3.042  0.00  0.00     0.002 A 
ATOM      3  C3  N4B d   1       5.391   5.040  -3.779  0.00  0.00     0.002 A 
ATOM      4  C4  N4B d   1       5.541   4.673  -5.108  0.00  0.00    -0.004 A 
ATOM      5  C5  N4B d   1       4.641   3.827  -5.688  0.00  0.00     0.002 A 
ATOM      6  C6  N4B d   1       3.597   3.293  -4.959  0.00  0.00     0.002 A 
ENDROOT
BRANCH   1   7
ATOM      7  C1' N4B d   1       2.354   2.950  -2.853  0.00  0.00     0.057 C 
BRANCH   7   8
ATOM      8  C2' N4B d   1       2.803   1.544  -2.466  0.00  0.00     0.009 C 
BRANCH   8   9
ATOM      9  C3' N4B d   1       3.436   1.510  -1.085  0.00  0.00     0.004 C 
ATOM     10  C4' N4B d   1       2.583   0.804  -0.074  0.00  0.00     0.003 C 
ENDBRANCH   8   9
ENDBRANCH   7   8
ENDBRANCH   1   7
TORSDOF 3
ENDMDL
