MODEL 1
REMARK minimizedAffinity 7.54357815
REMARK minimizedRMSD -1
REMARK  3 active torsions:
REMARK  status: ('A' for Active; 'I' for Inactive)
REMARK    1  A    between atoms: C3'_2  and  C2'_3 
REMARK    2  A    between atoms: C2'_3  and  C1'_4 
REMARK    3  A    between atoms: C1'_4  and  C1_5 
ROOT
ATOM      1  C1  N4B d   1       1.696   3.530  -1.796  0.00  0.00    -0.075 A 
ATOM      2  C2  N4B d   1       1.367   3.002  -0.528  0.00  0.00     0.002 A 
ATOM      3  C3  N4B d   1       2.069   1.933  -0.027  0.00  0.00     0.002 A 
ATOM      4  C4  N4B d   1       3.086   1.366  -0.780  0.00  0.00    -0.004 A 
ATOM      5  C5  N4B d   1       3.414   1.898  -1.992  0.00  0.00     0.002 A 
ATOM      6  C6  N4B d   1       2.721   2.974  -2.507  0.00  0.00     0.002 A 
ENDROOT
BRANCH   1   7
ATOM      7  C1' N4B d   1       0.902   4.643  -2.424  0.00  0.00     0.057 C 
BRANCH   7   8
ATOM      8  C2' N4B d   1       0.183   4.110  -3.659  0.00  0.00     0.009 C 
BRANCH   8   9
ATOM      9  C3' N4B d   1      -1.092   4.882  -3.951  0.00  0.00     0.004 C 
ATOM     10  C4' N4B d   1      -1.367   5.014  -5.420  0.00  0.00     0.003 C 
ENDBRANCH   8   9
ENDBRANCH   7   8
ENDBRANCH   1   7
TORSDOF 3
ENDMDL
