MODEL 1
REMARK minimizedAffinity -3.53821516
REMARK minimizedRMSD -1
REMARK  3 active torsions:
REMARK  status: ('A' for Active; 'I' for Inactive)
REMARK    1  A    between atoms: C3'_2  and  C2'_3 
REMARK    2  A    between atoms: C2'_3  and  C1'_4 
REMARK    3  A    between atoms: C1'_4  and  C1_5 
ROOT
ATOM      1  C1  N4B d   1       1.452   3.709  -0.405  0.00  0.00    -0.075 A 
ATOM      2  C2  N4B d   1       0.623   3.652  -1.547  0.00  0.00     0.002 A 
ATOM      3  C3  N4B d   1      -0.464   4.484  -1.648  0.00  0.00     0.002 A 
ATOM      4  C4  N4B d   1      -0.752   5.365  -0.616  0.00  0.00    -0.004 A 
ATOM      5  C5  N4B d   1       0.068   5.432   0.472  0.00  0.00     0.002 A 
ATOM      6  C6  N4B d   1       1.167   4.604   0.585  0.00  0.00     0.002 A 
ENDROOT
BRANCH   1   7
ATOM      7  C1' N4B d   1       2.602   2.759  -0.210  0.00  0.00     0.057 C 
BRANCH   7   8
ATOM      8  C2' N4B d   1       2.667   1.802  -1.397  0.00  0.00     0.009 C 
BRANCH   8   9
ATOM      9  C3' N4B d   1       3.518   2.354  -2.527  0.00  0.00     0.004 C 
ATOM     10  C4' N4B d   1       2.773   2.442  -3.826  0.00  0.00     0.003 C 
ENDBRANCH   8   9
ENDBRANCH   7   8
ENDBRANCH   1   7
TORSDOF 3
ENDMDL
