MODEL 1
REMARK minimizedAffinity 4.85360765
REMARK minimizedRMSD -1
REMARK  1 active torsions:
REMARK  status: ('A' for Active; 'I' for Inactive)
REMARK    1  A    between atoms: C1_2  and  C2_3 
ROOT
ATOM      1  C2  UNL d   1      -0.534  -0.499   1.240  0.00  0.00    -0.076 A 
ATOM      2  C3  UNL d   1       0.541  -0.871   0.413  0.00  0.00     0.004 A 
ATOM      3  C4  UNL d   1       0.443  -0.780  -0.975  0.00  0.00    -0.003 A 
ATOM      4  C5  UNL d   1      -0.730  -0.316  -1.558  0.00  0.00     0.000 A 
ATOM      5  C6  UNL d   1      -1.800   0.074  -0.753  0.00  0.00     0.000 A 
ATOM      6  C7  UNL d   1      -1.712   0.004   0.648  0.00  0.00    -0.073 A 
ATOM      7  C8  UNL d   1      -2.898   0.432   1.468  0.00  0.00     0.078 C 
ENDROOT
BRANCH   1   8
ATOM      8  C1  UNL d   1      -0.380  -0.645   2.737  0.00  0.00     0.053 C 
ATOM      9  C   UNL d   1      -1.012  -1.923   3.266  0.00  0.00     0.018 C 
ENDBRANCH   1   8
TORSDOF 1
ENDMDL
