MODEL 1
REMARK minimizedAffinity 6.64810848
REMARK minimizedRMSD -1
REMARK  1 active torsions:
REMARK  status: ('A' for Active; 'I' for Inactive)
REMARK    1  A    between atoms: C1_2  and  C2_3 
ROOT
ATOM      1  C2  UNL d   1      -0.142  -0.462   0.503  0.00  0.00    -0.076 A 
ATOM      2  C3  UNL d   1       0.237  -0.898   1.785  0.00  0.00     0.004 A 
ATOM      3  C4  UNL d   1      -0.633  -0.784   2.868  0.00  0.00    -0.003 A 
ATOM      4  C5  UNL d   1      -1.896  -0.233   2.687  0.00  0.00     0.000 A 
ATOM      5  C6  UNL d   1      -2.296   0.188   1.419  0.00  0.00     0.000 A 
ATOM      6  C7  UNL d   1      -1.437   0.065   0.313  0.00  0.00    -0.073 A 
ATOM      7  C8  UNL d   1      -1.917   0.542  -1.030  0.00  0.00     0.078 C 
ENDROOT
BRANCH   1   8
ATOM      8  C1  UNL d   1       0.854  -0.586  -0.627  0.00  0.00     0.053 C 
ATOM      9  C   UNL d   1       1.727   0.651  -0.774  0.00  0.00     0.018 C 
ENDBRANCH   1   8
TORSDOF 1
ENDMDL
