MODEL 1
REMARK minimizedAffinity -1.86043537
REMARK minimizedRMSD -1
REMARK  1 active torsions:
REMARK  status: ('A' for Active; 'I' for Inactive)
REMARK    1  A    between atoms: C1_2  and  C2_3 
ROOT
ATOM      1  C2  UNL d   1       0.111  -2.395   2.577  0.00  0.00    -0.076 A 
ATOM      2  C3  UNL d   1      -1.061  -2.220   3.334  0.00  0.00     0.004 A 
ATOM      3  C4  UNL d   1      -1.660  -3.295   3.988  0.00  0.00    -0.003 A 
ATOM      4  C5  UNL d   1      -1.098  -4.563   3.897  0.00  0.00     0.000 A 
ATOM      5  C6  UNL d   1       0.074  -4.752   3.164  0.00  0.00     0.000 A 
ATOM      6  C7  UNL d   1       0.700  -3.676   2.512  0.00  0.00    -0.073 A 
ATOM      7  C8  UNL d   1       1.959  -3.939   1.731  0.00  0.00     0.078 C 
ENDROOT
BRANCH   1   8
ATOM      8  C1  UNL d   1       0.701  -1.198   1.867  0.00  0.00     0.053 C 
ATOM      9  C   UNL d   1      -0.352  -0.371   1.145  0.00  0.00     0.018 C 
ENDBRANCH   1   8
TORSDOF 1
ENDMDL
