MODEL 1
REMARK minimizedAffinity 5.48482084
REMARK minimizedRMSD -1
REMARK  1 active torsions:
REMARK  status: ('A' for Active; 'I' for Inactive)
REMARK    1  A    between atoms: C1_2  and  C2_3 
ROOT
ATOM      1  C2  UNL d   1      -1.171  -0.767   1.025  0.00  0.00    -0.076 A 
ATOM      2  C3  UNL d   1      -0.944   0.305   0.144  0.00  0.00     0.004 A 
ATOM      3  C4  UNL d   1       0.235   1.047   0.205  0.00  0.00    -0.003 A 
ATOM      4  C5  UNL d   1       1.207   0.727   1.147  0.00  0.00     0.000 A 
ATOM      5  C6  UNL d   1       1.006  -0.345   2.016  0.00  0.00     0.000 A 
ATOM      6  C7  UNL d   1      -0.169  -1.112   1.957  0.00  0.00    -0.073 A 
ATOM      7  C8  UNL d   1      -0.336  -2.254   2.923  0.00  0.00     0.078 C 
ENDROOT
BRANCH   1   8
ATOM      8  C1  UNL d   1      -2.480  -1.518   0.930  0.00  0.00     0.053 C 
ATOM      9  C   UNL d   1      -3.462  -1.116   2.019  0.00  0.00     0.018 C 
ENDBRANCH   1   8
TORSDOF 1
ENDMDL
