MODEL 1
REMARK minimizedAffinity -0.150260031
REMARK minimizedRMSD -1
REMARK  1 active torsions:
REMARK  status: ('A' for Active; 'I' for Inactive)
REMARK    1  A    between atoms: C1_2  and  C2_3 
ROOT
ATOM      1  C2  UNL d   1       1.018  -2.273   1.492  0.00  0.00    -0.076 A 
ATOM      2  C3  UNL d   1       0.294  -2.464   2.682  0.00  0.00     0.004 A 
ATOM      3  C4  UNL d   1      -0.804  -1.663   2.990  0.00  0.00    -0.003 A 
ATOM      4  C5  UNL d   1      -1.198  -0.659   2.112  0.00  0.00     0.000 A 
ATOM      5  C6  UNL d   1      -0.503  -0.468   0.919  0.00  0.00     0.000 A 
ATOM      6  C7  UNL d   1       0.597  -1.277   0.585  0.00  0.00    -0.073 A 
ATOM      7  C8  UNL d   1       1.313  -1.022  -0.712  0.00  0.00     0.078 C 
ENDROOT
BRANCH   1   8
ATOM      8  C1  UNL d   1       2.217  -3.154   1.224  0.00  0.00     0.053 C 
ATOM      9  C   UNL d   1       2.790  -3.760   2.495  0.00  0.00     0.018 C 
ENDBRANCH   1   8
TORSDOF 1
ENDMDL
