MODEL 1
REMARK minimizedAffinity 2.61881208
REMARK minimizedRMSD -1
REMARK  1 active torsions:
REMARK  status: ('A' for Active; 'I' for Inactive)
REMARK    1  A    between atoms: C1_2  and  C2_3 
ROOT
ATOM      1  C2  UNL d   1       0.179  -1.078   1.110  0.00  0.00    -0.076 A 
ATOM      2  C3  UNL d   1       0.050  -1.716   2.356  0.00  0.00     0.004 A 
ATOM      3  C4  UNL d   1       0.794  -2.855   2.659  0.00  0.00    -0.003 A 
ATOM      4  C5  UNL d   1       1.679  -3.375   1.721  0.00  0.00     0.000 A 
ATOM      5  C6  UNL d   1       1.832  -2.745   0.486  0.00  0.00     0.000 A 
ATOM      6  C7  UNL d   1       1.102  -1.586   0.171  0.00  0.00    -0.073 A 
ATOM      7  C8  UNL d   1       1.303  -0.951  -1.178  0.00  0.00     0.078 C 
ENDROOT
BRANCH   1   8
ATOM      8  C1  UNL d   1      -0.673   0.138   0.827  0.00  0.00     0.053 C 
ATOM      9  C   UNL d   1      -1.934  -0.202   0.047  0.00  0.00     0.018 C 
ENDBRANCH   1   8
TORSDOF 1
ENDMDL
