MODEL 1
REMARK minimizedAffinity -2.77676988
REMARK minimizedRMSD -1
REMARK  0 active torsions:
REMARK  status: ('A' for Active; 'I' for Inactive)
ROOT
ATOM      1  C1  BNZ d   1       1.956   0.185   1.578  0.00  0.00     0.000 A 
ATOM      2  C2  BNZ d   1       2.330  -1.087   1.235  0.00  0.00     0.000 A 
ATOM      3  C3  BNZ d   1       1.659  -1.776   0.264  0.00  0.00     0.000 A 
ATOM      4  C4  BNZ d   1       0.592  -1.209  -0.335  0.00  0.00     0.000 A 
ATOM      5  C5  BNZ d   1       0.197   0.069   0.007  0.00  0.00     0.000 A 
ATOM      6  C6  BNZ d   1       0.899   0.774   0.957  0.00  0.00     0.000 A 
ENDROOT
TORSDOF 0
ENDMDL
