MODEL 1
REMARK minimizedAffinity -2.5074935
REMARK minimizedRMSD -1
REMARK  0 active torsions:
REMARK  status: ('A' for Active; 'I' for Inactive)
ROOT
ATOM      1  C1  BNZ d   1       0.606  -1.656  -1.030  0.00  0.00     0.000 A 
ATOM      2  C2  BNZ d   1      -0.392  -0.774  -1.349  0.00  0.00     0.000 A 
ATOM      3  C3  BNZ d   1      -0.505   0.421  -0.694  0.00  0.00     0.000 A 
ATOM      4  C4  BNZ d   1       0.353   0.714   0.304  0.00  0.00     0.000 A 
ATOM      5  C5  BNZ d   1       1.359  -0.168   0.643  0.00  0.00     0.000 A 
ATOM      6  C6  BNZ d   1       1.494  -1.353  -0.044  0.00  0.00     0.000 A 
ENDROOT
TORSDOF 0
ENDMDL
