MODEL 1
REMARK minimizedAffinity -4.3317852
REMARK minimizedRMSD -1
REMARK  0 active torsions:
REMARK  status: ('A' for Active; 'I' for Inactive)
ROOT
ATOM      1  C1  BNZ d   1       1.428  -0.680   0.366  0.00  0.00     0.000 A 
ATOM      2  C2  BNZ d   1       0.830  -1.362  -0.660  0.00  0.00     0.000 A 
ATOM      3  C3  BNZ d   1      -0.326  -0.900  -1.226  0.00  0.00     0.000 A 
ATOM      4  C4  BNZ d   1      -0.902   0.218  -0.741  0.00  0.00     0.000 A 
ATOM      5  C5  BNZ d   1      -0.315   0.911   0.299  0.00  0.00     0.000 A 
ATOM      6  C6  BNZ d   1       0.868   0.465   0.842  0.00  0.00     0.000 A 
ENDROOT
TORSDOF 0
ENDMDL
