MODEL 1
REMARK minimizedAffinity -1.73153961
REMARK minimizedRMSD -1
REMARK  0 active torsions:
REMARK  status: ('A' for Active; 'I' for Inactive)
ROOT
ATOM      1  C1  BNZ d   1       1.141   1.288   0.685  0.00  0.00     0.000 A 
ATOM      2  C2  BNZ d   1       0.074   1.903   0.087  0.00  0.00     0.000 A 
ATOM      3  C3  BNZ d   1      -1.035   1.189  -0.273  0.00  0.00     0.000 A 
ATOM      4  C4  BNZ d   1      -1.059  -0.144  -0.070  0.00  0.00     0.000 A 
ATOM      5  C5  BNZ d   1       0.013  -0.781   0.524  0.00  0.00     0.000 A 
ATOM      6  C6  BNZ d   1       1.111  -0.052   0.920  0.00  0.00     0.000 A 
ENDROOT
TORSDOF 0
ENDMDL
