MODEL 1
REMARK minimizedAffinity -4.14419651
REMARK minimizedRMSD -1
REMARK  0 active torsions:
REMARK  status: ('A' for Active; 'I' for Inactive)
ROOT
ATOM      1  C1  BNZ d   1       0.200  -1.339  -0.494  0.00  0.00     0.000 A 
ATOM      2  C2  BNZ d   1       1.414  -1.834  -0.097  0.00  0.00     0.000 A 
ATOM      3  C3  BNZ d   1       2.383  -1.002   0.391  0.00  0.00     0.000 A 
ATOM      4  C4  BNZ d   1       2.152   0.326   0.442  0.00  0.00     0.000 A 
ATOM      5  C5  BNZ d   1       0.937   0.841   0.037  0.00  0.00     0.000 A 
ATOM      6  C6  BNZ d   1      -0.050  -0.004  -0.417  0.00  0.00     0.000 A 
ENDROOT
TORSDOF 0
ENDMDL
