MODEL 1
REMARK minimizedAffinity -4.35524416
REMARK minimizedRMSD -1
REMARK  0 active torsions:
REMARK  status: ('A' for Active; 'I' for Inactive)
ROOT
ATOM      1  C1  BNZ d   1       1.951  -0.349   1.312  0.00  0.00     0.000 A 
ATOM      2  C2  BNZ d   1       0.701   0.175   1.113  0.00  0.00     0.000 A 
ATOM      3  C3  BNZ d   1      -0.144  -0.364   0.184  0.00  0.00     0.000 A 
ATOM      4  C4  BNZ d   1       0.274  -1.400  -0.571  0.00  0.00     0.000 A 
ATOM      5  C5  BNZ d   1       1.534  -1.934  -0.389  0.00  0.00     0.000 A 
ATOM      6  C6  BNZ d   1       2.368  -1.413   0.573  0.00  0.00     0.000 A 
ENDROOT
TORSDOF 0
ENDMDL
