MODEL 1
REMARK minimizedAffinity -4.16661263
REMARK minimizedRMSD -1
REMARK  0 active torsions:
REMARK  status: ('A' for Active; 'I' for Inactive)
ROOT
ATOM      1  C1  BNZ d   1       0.796   0.152  -0.084  0.00  0.00     0.000 A 
ATOM      2  C2  BNZ d   1       1.197  -1.157  -0.084  0.00  0.00     0.000 A 
ATOM      3  C3  BNZ d   1       2.524  -1.483  -0.054  0.00  0.00     0.000 A 
ATOM      4  C4  BNZ d   1       3.448  -0.500  -0.066  0.00  0.00     0.000 A 
ATOM      5  C5  BNZ d   1       3.059   0.825  -0.076  0.00  0.00     0.000 A 
ATOM      6  C6  BNZ d   1       1.722   1.149  -0.066  0.00  0.00     0.000 A 
ENDROOT
TORSDOF 0
ENDMDL
