MODEL 1
REMARK minimizedAffinity -4.00256157
REMARK minimizedRMSD -1
REMARK  0 active torsions:
REMARK  status: ('A' for Active; 'I' for Inactive)
ROOT
ATOM      1  C1  BNZ d   1      -0.083   0.710   0.033  0.00  0.00     0.000 A 
ATOM      2  C2  BNZ d   1      -0.577  -0.419  -0.565  0.00  0.00     0.000 A 
ATOM      3  C3  BNZ d   1       0.095  -1.606  -0.483  0.00  0.00     0.000 A 
ATOM      4  C4  BNZ d   1       1.279  -1.654   0.162  0.00  0.00     0.000 A 
ATOM      5  C5  BNZ d   1       1.795  -0.523   0.762  0.00  0.00     0.000 A 
ATOM      6  C6  BNZ d   1       1.096   0.662   0.711  0.00  0.00     0.000 A 
ENDROOT
TORSDOF 0
ENDMDL
