MODEL 1
REMARK minimizedAffinity -3.87876487
REMARK minimizedRMSD -1
REMARK  0 active torsions:
REMARK  status: ('A' for Active; 'I' for Inactive)
ROOT
ATOM      1  C1  BNZ d   1      -0.480  -0.113  -0.570  0.00  0.00     0.000 A 
ATOM      2  C2  BNZ d   1       0.051  -1.373  -0.640  0.00  0.00     0.000 A 
ATOM      3  C3  BNZ d   1       1.260  -1.656  -0.067  0.00  0.00     0.000 A 
ATOM      4  C4  BNZ d   1       1.953  -0.670   0.539  0.00  0.00     0.000 A 
ATOM      5  C5  BNZ d   1       1.435   0.607   0.609  0.00  0.00     0.000 A 
ATOM      6  C6  BNZ d   1       0.200   0.880   0.066  0.00  0.00     0.000 A 
ENDROOT
TORSDOF 0
ENDMDL
