MODEL 1
REMARK minimizedAffinity -3.59333682
REMARK minimizedRMSD -1
REMARK  2 active torsions:
REMARK  status: ('A' for Active; 'I' for Inactive)
REMARK    1  A    between atoms: C2'_3  and  C1'_4 
REMARK    2  A    between atoms: C1'_4  and  C1_5 
ROOT
ATOM      1  C1  I4B d   1       0.566  -0.465  -0.559  0.00  0.00    -0.075 A 
ATOM      2  C2  I4B d   1       1.241  -0.055   0.563  0.00  0.00     0.003 A 
ATOM      3  C3  I4B d   1       0.538   0.538   1.640  0.00  0.00     0.002 A 
ATOM      4  C4  I4B d   1      -0.821   0.747   1.532  0.00  0.00    -0.004 A 
ATOM      5  C5  I4B d   1      -1.507   0.309   0.402  0.00  0.00     0.002 A 
ATOM      6  C6  I4B d   1      -0.811  -0.312  -0.645  0.00  0.00     0.003 A 
ENDROOT
BRANCH   1   7
ATOM      7  C1' I4B d   1       1.344  -1.058  -1.691  0.00  0.00     0.060 C 
BRANCH   7   8
ATOM      8  C2' I4B d   1       1.060  -0.237  -2.933  0.00  0.00    -0.013 C 
ATOM      9  C4' I4B d   1       2.326   0.351  -3.499  0.00  0.00     0.013 C 
ATOM     10  C3' I4B d   1       0.383  -1.127  -3.932  0.00  0.00     0.013 C 
ENDBRANCH   7   8
ENDBRANCH   1   7
TORSDOF 2
ENDMDL
