MODEL 1
REMARK minimizedAffinity -3.72014213
REMARK minimizedRMSD -1
REMARK  2 active torsions:
REMARK  status: ('A' for Active; 'I' for Inactive)
REMARK    1  A    between atoms: C2'_3  and  C1'_4 
REMARK    2  A    between atoms: C1'_4  and  C1_5 
ROOT
ATOM      1  C1  I4B d   1      -0.049  -0.446  -0.535  0.00  0.00    -0.075 A 
ATOM      2  C2  I4B d   1       0.629  -0.020   0.580  0.00  0.00     0.003 A 
ATOM      3  C3  I4B d   1      -0.059   0.650   1.621  0.00  0.00     0.002 A 
ATOM      4  C4  I4B d   1      -1.406   0.915   1.484  0.00  0.00    -0.004 A 
ATOM      5  C5  I4B d   1      -2.097   0.462   0.363  0.00  0.00     0.002 A 
ATOM      6  C6  I4B d   1      -1.417  -0.234  -0.647  0.00  0.00     0.003 A 
ENDROOT
BRANCH   1   7
ATOM      7  C1' I4B d   1       0.715  -1.120  -1.629  0.00  0.00     0.060 C 
BRANCH   7   8
ATOM      8  C2' I4B d   1       0.654  -0.234  -2.856  0.00  0.00    -0.013 C 
ATOM      9  C4' I4B d   1       1.967   0.466  -3.089  0.00  0.00     0.013 C 
ATOM     10  C3' I4B d   1       0.281  -1.091  -4.029  0.00  0.00     0.013 C 
ENDBRANCH   7   8
ENDBRANCH   1   7
TORSDOF 2
ENDMDL
