MODEL 1
REMARK minimizedAffinity -4.10374737
REMARK minimizedRMSD -1
REMARK  2 active torsions:
REMARK  status: ('A' for Active; 'I' for Inactive)
REMARK    1  A    between atoms: C2'_3  and  C1'_4 
REMARK    2  A    between atoms: C1'_4  and  C1_5 
ROOT
ATOM      1  C1  I4B d   1       0.512  -0.403  -2.330  0.00  0.00    -0.075 A 
ATOM      2  C2  I4B d   1      -0.120  -1.272  -3.184  0.00  0.00     0.003 A 
ATOM      3  C3  I4B d   1      -0.249  -0.955  -4.557  0.00  0.00     0.002 A 
ATOM      4  C4  I4B d   1       0.222   0.256  -5.022  0.00  0.00    -0.004 A 
ATOM      5  C5  I4B d   1       0.883   1.126  -4.160  0.00  0.00     0.002 A 
ATOM      6  C6  I4B d   1       1.041   0.789  -2.808  0.00  0.00     0.003 A 
ENDROOT
BRANCH   1   7
ATOM      7  C1' I4B d   1       0.601  -0.755  -0.879  0.00  0.00     0.060 C 
BRANCH   7   8
ATOM      8  C2' I4B d   1      -0.315   0.179  -0.115  0.00  0.00    -0.013 C 
ATOM      9  C4' I4B d   1      -1.662  -0.452   0.121  0.00  0.00     0.013 C 
ATOM     10  C3' I4B d   1       0.355   0.527   1.181  0.00  0.00     0.013 C 
ENDBRANCH   7   8
ENDBRANCH   1   7
TORSDOF 2
ENDMDL
