MODEL 1
REMARK minimizedAffinity -3.04595637
REMARK minimizedRMSD -1
REMARK  2 active torsions:
REMARK  status: ('A' for Active; 'I' for Inactive)
REMARK    1  A    between atoms: C2'_3  and  C1'_4 
REMARK    2  A    between atoms: C1'_4  and  C1_5 
ROOT
ATOM      1  C1  I4B d   1       0.325  -0.628  -0.427  0.00  0.00    -0.075 A 
ATOM      2  C2  I4B d   1       1.366  -0.975   0.398  0.00  0.00     0.003 A 
ATOM      3  C3  I4B d   1       1.584  -0.269   1.606  0.00  0.00     0.002 A 
ATOM      4  C4  I4B d   1       0.775   0.803   1.923  0.00  0.00    -0.004 A 
ATOM      5  C5  I4B d   1      -0.293   1.139   1.096  0.00  0.00     0.002 A 
ATOM      6  C6  I4B d   1      -0.528   0.412  -0.080  0.00  0.00     0.003 A 
ENDROOT
BRANCH   1   7
ATOM      7  C1' I4B d   1       0.143  -1.373  -1.710  0.00  0.00     0.060 C 
BRANCH   7   8
ATOM      8  C2' I4B d   1       0.255  -0.379  -2.848  0.00  0.00    -0.013 C 
ATOM      9  C4' I4B d   1       1.610   0.278  -2.867  0.00  0.00     0.013 C 
ATOM     10  C3' I4B d   1      -0.010  -1.110  -4.130  0.00  0.00     0.013 C 
ENDBRANCH   7   8
ENDBRANCH   1   7
TORSDOF 2
ENDMDL
