MODEL 1
REMARK minimizedAffinity -5.1713028
REMARK minimizedRMSD -1
REMARK  2 active torsions:
REMARK  status: ('A' for Active; 'I' for Inactive)
REMARK    1  A    between atoms: C2'_3  and  C1'_4 
REMARK    2  A    between atoms: C1'_4  and  C1_5 
ROOT
ATOM      1  C1  I4B d   1       0.140  -0.167  -0.277  0.00  0.00    -0.075 A 
ATOM      2  C2  I4B d   1      -1.195  -0.485  -0.230  0.00  0.00     0.003 A 
ATOM      3  C3  I4B d   1      -2.020   0.050   0.789  0.00  0.00     0.002 A 
ATOM      4  C4  I4B d   1      -1.463   0.853   1.763  0.00  0.00    -0.004 A 
ATOM      5  C5  I4B d   1      -0.114   1.193   1.700  0.00  0.00     0.002 A 
ATOM      6  C6  I4B d   1       0.690   0.690   0.667  0.00  0.00     0.003 A 
ENDROOT
BRANCH   1   7
ATOM      7  C1' I4B d   1       0.989  -0.776  -1.347  0.00  0.00     0.060 C 
BRANCH   7   8
ATOM      8  C2' I4B d   1       0.765   0.009  -2.624  0.00  0.00    -0.013 C 
ATOM      9  C4' I4B d   1       2.044   0.641  -3.107  0.00  0.00     0.013 C 
ATOM     10  C3' I4B d   1       0.202  -0.929  -3.651  0.00  0.00     0.013 C 
ENDBRANCH   7   8
ENDBRANCH   1   7
TORSDOF 2
ENDMDL
