MODEL 1
REMARK minimizedAffinity 0.0183999836
REMARK minimizedRMSD -1
REMARK  2 active torsions:
REMARK  status: ('A' for Active; 'I' for Inactive)
REMARK    1  A    between atoms: C2'_3  and  C1'_4 
REMARK    2  A    between atoms: C1'_4  and  C1_5 
ROOT
ATOM      1  C1  I4B d   1       0.082  -0.459  -1.488  0.00  0.00    -0.075 A 
ATOM      2  C2  I4B d   1       1.031  -0.344  -0.502  0.00  0.00     0.003 A 
ATOM      3  C3  I4B d   1       0.650   0.002   0.817  0.00  0.00     0.002 A 
ATOM      4  C4  I4B d   1      -0.675   0.272   1.093  0.00  0.00    -0.004 A 
ATOM      5  C5  I4B d   1      -1.638   0.133   0.097  0.00  0.00     0.002 A 
ATOM      6  C6  I4B d   1      -1.259  -0.247  -1.198  0.00  0.00     0.003 A 
ENDROOT
BRANCH   1   7
ATOM      7  C1' I4B d   1       0.524  -0.794  -2.877  0.00  0.00     0.060 C 
BRANCH   7   8
ATOM      8  C2' I4B d   1       1.160   0.444  -3.476  0.00  0.00    -0.013 C 
ATOM      9  C4' I4B d   1       2.643   0.262  -3.657  0.00  0.00     0.013 C 
ATOM     10  C3' I4B d   1       0.485   0.724  -4.786  0.00  0.00     0.013 C 
ENDBRANCH   7   8
ENDBRANCH   1   7
TORSDOF 2
ENDMDL
