MODEL 1
REMARK minimizedAffinity -3.0354979
REMARK minimizedRMSD -1
REMARK  2 active torsions:
REMARK  status: ('A' for Active; 'I' for Inactive)
REMARK    1  A    between atoms: C2'_3  and  C1'_4 
REMARK    2  A    between atoms: C1'_4  and  C1_5 
ROOT
ATOM      1  C1  I4B d   1       0.654  -0.004  -2.453  0.00  0.00    -0.075 A 
ATOM      2  C2  I4B d   1       0.029  -0.557  -3.542  0.00  0.00     0.003 A 
ATOM      3  C3  I4B d   1       0.176   0.029  -4.822  0.00  0.00     0.002 A 
ATOM      4  C4  I4B d   1       0.911   1.190  -4.958  0.00  0.00    -0.004 A 
ATOM      5  C5  I4B d   1       1.563   1.736  -3.856  0.00  0.00     0.002 A 
ATOM      6  C6  I4B d   1       1.444   1.129  -2.598  0.00  0.00     0.003 A 
ENDROOT
BRANCH   1   7
ATOM      7  C1' I4B d   1       0.451  -0.630  -1.110  0.00  0.00     0.060 C 
BRANCH   7   8
ATOM      8  C2' I4B d   1      -0.161   0.412  -0.196  0.00  0.00    -0.013 C 
ATOM      9  C4' I4B d   1      -1.601   0.093   0.108  0.00  0.00     0.013 C 
ATOM     10  C3' I4B d   1       0.658   0.467   1.059  0.00  0.00     0.013 C 
ENDBRANCH   7   8
ENDBRANCH   1   7
TORSDOF 2
ENDMDL
