MODEL 1
REMARK minimizedAffinity -3.6019125
REMARK minimizedRMSD -1
REMARK  2 active torsions:
REMARK  status: ('A' for Active; 'I' for Inactive)
REMARK    1  A    between atoms: C2'_3  and  C1'_4 
REMARK    2  A    between atoms: C1'_4  and  C1_5 
ROOT
ATOM      1  C1  I4B d   1      -0.328   0.809   0.244  0.00  0.00    -0.075 A 
ATOM      2  C2  I4B d   1      -1.451   0.030   0.372  0.00  0.00     0.003 A 
ATOM      3  C3  I4B d   1      -2.165   0.004   1.595  0.00  0.00     0.002 A 
ATOM      4  C4  I4B d   1      -1.695   0.728   2.672  0.00  0.00    -0.004 A 
ATOM      5  C5  I4B d   1      -0.569   1.535   2.533  0.00  0.00     0.002 A 
ATOM      6  C6  I4B d   1       0.112   1.586   1.308  0.00  0.00     0.003 A 
ENDROOT
BRANCH   1   7
ATOM      7  C1' I4B d   1       0.420   0.787  -1.051  0.00  0.00     0.060 C 
BRANCH   7   8
ATOM      8  C2' I4B d   1       0.212  -0.572  -1.687  0.00  0.00    -0.013 C 
ATOM      9  C4' I4B d   1       0.562  -0.548  -3.152  0.00  0.00     0.013 C 
ATOM     10  C3' I4B d   1       1.056  -1.565  -0.945  0.00  0.00     0.013 C 
ENDBRANCH   7   8
ENDBRANCH   1   7
TORSDOF 2
ENDMDL
