MODEL 1
REMARK minimizedAffinity -5.88262367
REMARK minimizedRMSD -1
REMARK  2 active torsions:
REMARK  status: ('A' for Active; 'I' for Inactive)
REMARK    1  A    between atoms: C2'_3  and  C1'_4 
REMARK    2  A    between atoms: C1'_4  and  C1_5 
ROOT
ATOM      1  C1  I4B d   1       0.050  -0.000   0.018  0.00  0.00    -0.075 A 
ATOM      2  C2  I4B d   1       0.805   0.320   1.118  0.00  0.00     0.003 A 
ATOM      3  C3  I4B d   1       0.237   1.066   2.180  0.00  0.00     0.002 A 
ATOM      4  C4  I4B d   1      -1.065   1.511   2.077  0.00  0.00    -0.004 A 
ATOM      5  C5  I4B d   1      -1.836   1.166   0.970  0.00  0.00     0.002 A 
ATOM      6  C6  I4B d   1      -1.279   0.395  -0.061  0.00  0.00     0.003 A 
ENDROOT
BRANCH   1   7
ATOM      7  C1' I4B d   1       0.691  -0.761  -1.100  0.00  0.00     0.060 C 
BRANCH   7   8
ATOM      8  C2' I4B d   1       0.607   0.089  -2.351  0.00  0.00    -0.013 C 
ATOM      9  C4' I4B d   1       1.753   1.064  -2.426  0.00  0.00     0.013 C 
ATOM     10  C3' I4B d   1       0.601  -0.831  -3.536  0.00  0.00     0.013 C 
ENDBRANCH   7   8
ENDBRANCH   1   7
TORSDOF 2
ENDMDL
