MODEL 1
REMARK minimizedAffinity 18.2523155
REMARK minimizedRMSD -1
REMARK  0 active torsions:
REMARK  status: ('A' for Active; 'I' for Inactive)
ROOT
ATOM      1  C   UNL d   1       0.673   3.611  -0.123  0.00  0.00     0.020 A 
ATOM      2  C1  UNL d   1       0.443   4.961  -0.383  0.00  0.00     0.020 A 
ATOM      3  C2  UNL d   1      -0.457   5.680   0.407  0.00  0.00     0.034 A 
ATOM      4  C3  UNL d   1      -1.131   5.049   1.459  0.00  0.00     0.017 A 
ATOM      5  C4  UNL d   1      -0.899   3.694   1.718  0.00  0.00     0.017 A 
ATOM      6  C5  UNL d   1       0.003   2.979   0.925  0.00  0.00     0.034 A 
ATOM      7 Cl   UNL d   1      -1.692   2.846   2.999  0.00  0.00    -0.070 Cl
ATOM      8 Cl1  UNL d   1      -2.229   6.000   2.394  0.00  0.00    -0.070 Cl
ENDROOT
TORSDOF 0
ENDMDL
