MODEL 1
REMARK minimizedAffinity 8.51785088
REMARK minimizedRMSD -1
REMARK  0 active torsions:
REMARK  status: ('A' for Active; 'I' for Inactive)
ROOT
ATOM      1  C   UNL d   1       0.583   4.591  -0.035  0.00  0.00     0.020 A 
ATOM      2  C1  UNL d   1       1.862   5.010   0.330  0.00  0.00     0.020 A 
ATOM      3  C2  UNL d   1       2.397   4.627   1.562  0.00  0.00     0.034 A 
ATOM      4  C3  UNL d   1       1.654   3.823   2.433  0.00  0.00     0.017 A 
ATOM      5  C4  UNL d   1       0.371   3.402   2.066  0.00  0.00     0.017 A 
ATOM      6  C5  UNL d   1      -0.161   3.788   0.832  0.00  0.00     0.034 A 
ATOM      7 Cl   UNL d   1      -0.607   2.408   3.088  0.00  0.00    -0.070 Cl
ATOM      8 Cl1  UNL d   1       2.379   3.387   3.940  0.00  0.00    -0.070 Cl
ENDROOT
TORSDOF 0
ENDMDL
