MODEL 1
REMARK minimizedAffinity 5.44901562
REMARK minimizedRMSD -1
REMARK  0 active torsions:
REMARK  status: ('A' for Active; 'I' for Inactive)
ROOT
ATOM      1  C   UNL d   1       5.999  -3.807  -0.754  0.00  0.00     0.020 A 
ATOM      2  C1  UNL d   1       5.996  -2.613  -1.475  0.00  0.00     0.020 A 
ATOM      3  C2  UNL d   1       4.885  -1.768  -1.422  0.00  0.00     0.034 A 
ATOM      4  C3  UNL d   1       3.773  -2.116  -0.646  0.00  0.00     0.017 A 
ATOM      5  C4  UNL d   1       3.777  -3.314   0.077  0.00  0.00     0.017 A 
ATOM      6  C5  UNL d   1       4.892  -4.156   0.020  0.00  0.00     0.034 A 
ATOM      7 Cl   UNL d   1       2.442  -3.810   1.056  0.00  0.00    -0.070 Cl
ATOM      8 Cl1  UNL d   1       2.434  -1.023  -0.627  0.00  0.00    -0.070 Cl
ENDROOT
TORSDOF 0
ENDMDL
