MODEL 1
REMARK minimizedAffinity 12.4750195
REMARK minimizedRMSD -1
REMARK  0 active torsions:
REMARK  status: ('A' for Active; 'I' for Inactive)
ROOT
ATOM      1  C   UNL d   1       0.644   5.402  -1.033  0.00  0.00     0.020 A 
ATOM      2  C1  UNL d   1       1.101   4.094  -0.877  0.00  0.00     0.020 A 
ATOM      3  C2  UNL d   1       0.727   3.353   0.246  0.00  0.00     0.034 A 
ATOM      4  C3  UNL d   1      -0.106   3.919   1.218  0.00  0.00     0.017 A 
ATOM      5  C4  UNL d   1      -0.564   5.233   1.061  0.00  0.00     0.017 A 
ATOM      6  C5  UNL d   1      -0.186   5.970  -0.066  0.00  0.00     0.034 A 
ATOM      7 Cl   UNL d   1      -1.594   6.000   2.217  0.00  0.00    -0.070 Cl
ATOM      8 Cl1  UNL d   1      -0.529   2.945   2.581  0.00  0.00    -0.070 Cl
ENDROOT
TORSDOF 0
ENDMDL
