MODEL 1
REMARK minimizedAffinity 5.85022879
REMARK minimizedRMSD -1
REMARK  0 active torsions:
REMARK  status: ('A' for Active; 'I' for Inactive)
ROOT
ATOM      1  C   UNL d   1       0.210   5.480  -0.672  0.00  0.00     0.020 A 
ATOM      2  C1  UNL d   1      -0.177   5.985   0.569  0.00  0.00     0.020 A 
ATOM      3  C2  UNL d   1      -0.501   5.110   1.608  0.00  0.00     0.034 A 
ATOM      4  C3  UNL d   1      -0.438   3.726   1.408  0.00  0.00     0.017 A 
ATOM      5  C4  UNL d   1      -0.050   3.220   0.162  0.00  0.00     0.017 A 
ATOM      6  C5  UNL d   1       0.273   4.101  -0.875  0.00  0.00     0.034 A 
ATOM      7 Cl   UNL d   1       0.051   1.525  -0.160  0.00  0.00    -0.070 Cl
ATOM      8 Cl1  UNL d   1      -0.852   2.703   2.738  0.00  0.00    -0.070 Cl
ENDROOT
TORSDOF 0
ENDMDL
