MODEL 1
REMARK minimizedAffinity 11.8658094
REMARK minimizedRMSD -1
REMARK  0 active torsions:
REMARK  status: ('A' for Active; 'I' for Inactive)
ROOT
ATOM      1  C   UNL d   1       5.984  -2.099  -1.170  0.00  0.00     0.020 A 
ATOM      2  C1  UNL d   1       5.203  -2.946  -0.384  0.00  0.00     0.020 A 
ATOM      3  C2  UNL d   1       4.438  -3.948  -0.985  0.00  0.00     0.034 A 
ATOM      4  C3  UNL d   1       4.452  -4.106  -2.375  0.00  0.00     0.017 A 
ATOM      5  C4  UNL d   1       5.235  -3.255  -3.164  0.00  0.00     0.017 A 
ATOM      6  C5  UNL d   1       6.000  -2.254  -2.557  0.00  0.00     0.034 A 
ATOM      7 Cl   UNL d   1       5.304  -3.388  -4.885  0.00  0.00    -0.070 Cl
ATOM      8 Cl1  UNL d   1       3.481  -5.366  -3.051  0.00  0.00    -0.070 Cl
ENDROOT
TORSDOF 0
ENDMDL
