MODEL 1
REMARK minimizedAffinity 11.5505657
REMARK minimizedRMSD -1
REMARK  0 active torsions:
REMARK  status: ('A' for Active; 'I' for Inactive)
ROOT
ATOM      1  C   UNL d   1      -0.039   5.065  -0.641  0.00  0.00     0.020 A 
ATOM      2  C1  UNL d   1      -0.367   5.517   0.636  0.00  0.00     0.020 A 
ATOM      3  C2  UNL d   1      -0.481   4.608   1.691  0.00  0.00     0.034 A 
ATOM      4  C3  UNL d   1      -0.266   3.243   1.469  0.00  0.00     0.017 A 
ATOM      5  C4  UNL d   1       0.064   2.790   0.186  0.00  0.00     0.017 A 
ATOM      6  C5  UNL d   1       0.176   3.705  -0.865  0.00  0.00     0.034 A 
ATOM      7 Cl   UNL d   1       0.343   1.121  -0.164  0.00  0.00    -0.070 Cl
ATOM      8 Cl1  UNL d   1      -0.424   2.175   2.819  0.00  0.00    -0.070 Cl
ENDROOT
TORSDOF 0
ENDMDL
