MODEL 1
REMARK minimizedAffinity 8.33159065
REMARK minimizedRMSD -1
REMARK  0 active torsions:
REMARK  status: ('A' for Active; 'I' for Inactive)
ROOT
ATOM      1  C   UNL d   1       0.049   5.961   0.005  0.00  0.00     0.020 A 
ATOM      2  C1  UNL d   1      -0.287   5.349  -1.202  0.00  0.00     0.020 A 
ATOM      3  C2  UNL d   1      -0.289   3.956  -1.301  0.00  0.00     0.034 A 
ATOM      4  C3  UNL d   1       0.044   3.170  -0.192  0.00  0.00     0.017 A 
ATOM      5  C4  UNL d   1       0.381   3.785   1.019  0.00  0.00     0.017 A 
ATOM      6  C5  UNL d   1       0.382   5.181   1.113  0.00  0.00     0.034 A 
ATOM      7 Cl   UNL d   1       0.804   2.883   2.431  0.00  0.00    -0.070 Cl
ATOM      8 Cl1  UNL d   1       0.020   1.453  -0.386  0.00  0.00    -0.070 Cl
ENDROOT
TORSDOF 0
ENDMDL
