MODEL 1
REMARK minimizedAffinity 9.53170395
REMARK minimizedRMSD -1
REMARK  0 active torsions:
REMARK  status: ('A' for Active; 'I' for Inactive)
ROOT
ATOM      1  C   UNL d   1       5.709  -1.864  -1.489  0.00  0.00     0.020 A 
ATOM      2  C1  UNL d   1       4.685  -1.029  -1.044  0.00  0.00     0.020 A 
ATOM      3  C2  UNL d   1       3.951  -1.371   0.094  0.00  0.00     0.034 A 
ATOM      4  C3  UNL d   1       4.239  -2.551   0.790  0.00  0.00     0.017 A 
ATOM      5  C4  UNL d   1       5.267  -3.388   0.342  0.00  0.00     0.017 A 
ATOM      6  C5  UNL d   1       5.999  -3.041  -0.798  0.00  0.00     0.034 A 
ATOM      7 Cl   UNL d   1       5.681  -4.860   1.147  0.00  0.00    -0.070 Cl
ATOM      8 Cl1  UNL d   1       3.291  -2.910   2.189  0.00  0.00    -0.070 Cl
ENDROOT
TORSDOF 0
ENDMDL
