MODEL 1
REMARK minimizedAffinity 11.8030224
REMARK minimizedRMSD -1
REMARK  0 active torsions:
REMARK  status: ('A' for Active; 'I' for Inactive)
ROOT
ATOM      1  C   UNL d   1      -4.052   0.533   3.149  0.00  0.00     0.020 A 
ATOM      2  C1  UNL d   1      -3.848  -0.748   3.662  0.00  0.00     0.020 A 
ATOM      3  C2  UNL d   1      -2.605  -1.097   4.194  0.00  0.00     0.034 A 
ATOM      4  C3  UNL d   1      -1.561  -0.165   4.215  0.00  0.00     0.017 A 
ATOM      5  C4  UNL d   1      -1.767   1.120   3.700  0.00  0.00     0.017 A 
ATOM      6  C5  UNL d   1      -3.013   1.464   3.168  0.00  0.00     0.034 A 
ATOM      7 Cl   UNL d   1      -0.527   2.324   3.691  0.00  0.00    -0.070 Cl
ATOM      8 Cl1  UNL d   1      -0.051  -0.665   4.888  0.00  0.00    -0.070 Cl
ENDROOT
TORSDOF 0
ENDMDL
