MODEL 1
REMARK minimizedAffinity 9.72645473
REMARK minimizedRMSD -1
REMARK  0 active torsions:
REMARK  status: ('A' for Active; 'I' for Inactive)
ROOT
ATOM      1  C   UNL d   1      -0.747   5.531  -0.879  0.00  0.00     0.020 A 
ATOM      2  C1  UNL d   1      -0.897   5.999   0.425  0.00  0.00     0.020 A 
ATOM      3  C2  UNL d   1      -0.670   5.142   1.505  0.00  0.00     0.034 A 
ATOM      4  C3  UNL d   1      -0.291   3.813   1.281  0.00  0.00     0.017 A 
ATOM      5  C4  UNL d   1      -0.139   3.345  -0.029  0.00  0.00     0.017 A 
ATOM      6  C5  UNL d   1      -0.368   4.207  -1.106  0.00  0.00     0.034 A 
ATOM      7 Cl   UNL d   1       0.326   1.719  -0.385  0.00  0.00    -0.070 Cl
ATOM      8 Cl1  UNL d   1      -0.026   2.810   2.662  0.00  0.00    -0.070 Cl
ENDROOT
TORSDOF 0
ENDMDL
