MODEL 1
REMARK minimizedAffinity 10.3764524
REMARK minimizedRMSD -1
REMARK  0 active torsions:
REMARK  status: ('A' for Active; 'I' for Inactive)
ROOT
ATOM      1  O1  BZF d   1      -0.736   0.327   1.172  0.00  0.00    -0.204 OA
ATOM      2  C2  BZF d   1      -1.534   0.421   0.048  0.00  0.00     0.174 A 
ATOM      3  C3  BZF d   1      -2.766  -0.068   0.293  0.00  0.00    -0.012 A 
ATOM      4  C3A BZF d   1      -2.766  -0.410   1.683  0.00  0.00    -0.107 A 
ATOM      5  C4  BZF d   1      -3.710  -0.929   2.522  0.00  0.00     0.055 A 
ATOM      6  C5  BZF d   1      -3.367  -1.212   3.806  0.00  0.00    -0.016 A 
ATOM      7  C6  BZF d   1      -2.091  -0.995   4.282  0.00  0.00     0.022 A 
ATOM      8  C7  BZF d   1      -1.122  -0.477   3.489  0.00  0.00     0.029 A 
ATOM      9  C7A BZF d   1      -1.474  -0.159   2.200  0.00  0.00     0.058 A 
ENDROOT
TORSDOF 0
ENDMDL
