MODEL 1
REMARK minimizedAffinity 0.748912632
REMARK minimizedRMSD -1
REMARK  0 active torsions:
REMARK  status: ('A' for Active; 'I' for Inactive)
ROOT
ATOM      1  O1  BZF d   1       1.466  -1.544   4.044  0.00  0.00    -0.204 OA
ATOM      2  C2  BZF d   1       2.051  -0.859   2.996  0.00  0.00     0.174 A 
ATOM      3  C3  BZF d   1       1.112  -0.273   2.225  0.00  0.00    -0.012 A 
ATOM      4  C3A BZF d   1      -0.132  -0.536   2.881  0.00  0.00    -0.107 A 
ATOM      5  C4  BZF d   1      -1.427  -0.200   2.607  0.00  0.00     0.055 A 
ATOM      6  C5  BZF d   1      -2.416  -0.676   3.408  0.00  0.00    -0.016 A 
ATOM      7  C6  BZF d   1      -2.147  -1.494   4.486  0.00  0.00     0.022 A 
ATOM      8  C7  BZF d   1      -0.878  -1.851   4.800  0.00  0.00     0.029 A 
ATOM      9  C7A BZF d   1       0.127  -1.344   4.012  0.00  0.00     0.058 A 
ENDROOT
TORSDOF 0
ENDMDL
