MODEL 1
REMARK minimizedAffinity -0.138512313
REMARK minimizedRMSD -1
REMARK  0 active torsions:
REMARK  status: ('A' for Active; 'I' for Inactive)
ROOT
ATOM      1  O1  BZF d   1       1.082  -1.558   3.801  0.00  0.00    -0.204 OA
ATOM      2  C2  BZF d   1       0.424  -1.855   4.979  0.00  0.00     0.174 A 
ATOM      3  C3  BZF d   1      -0.810  -1.311   4.989  0.00  0.00    -0.012 A 
ATOM      4  C3A BZF d   1      -0.965  -0.708   3.701  0.00  0.00    -0.107 A 
ATOM      5  C4  BZF d   1      -1.984  -0.023   3.101  0.00  0.00     0.055 A 
ATOM      6  C5  BZF d   1      -1.790   0.497   1.861  0.00  0.00    -0.016 A 
ATOM      7  C6  BZF d   1      -0.590   0.357   1.194  0.00  0.00     0.022 A 
ATOM      8  C7  BZF d   1       0.448  -0.317   1.747  0.00  0.00     0.029 A 
ATOM      9  C7A BZF d   1       0.244  -0.873   2.986  0.00  0.00     0.058 A 
ENDROOT
TORSDOF 0
ENDMDL
