MODEL 1
REMARK minimizedAffinity 10.4974051
REMARK minimizedRMSD -1
REMARK  0 active torsions:
REMARK  status: ('A' for Active; 'I' for Inactive)
ROOT
ATOM      1  O1  BZF d   1       1.006   0.316   1.610  0.00  0.00    -0.204 OA
ATOM      2  C2  BZF d   1       2.118  -0.178   0.955  0.00  0.00     0.174 A 
ATOM      3  C3  BZF d   1       1.756  -0.870  -0.145  0.00  0.00    -0.012 A 
ATOM      4  C3A BZF d   1       0.335  -0.726  -0.230  0.00  0.00    -0.107 A 
ATOM      5  C4  BZF d   1      -0.603  -1.174  -1.115  0.00  0.00     0.055 A 
ATOM      6  C5  BZF d   1      -1.915  -0.921  -0.872  0.00  0.00    -0.016 A 
ATOM      7  C6  BZF d   1      -2.326  -0.228   0.248  0.00  0.00     0.022 A 
ATOM      8  C7  BZF d   1      -1.432   0.241   1.153  0.00  0.00     0.029 A 
ATOM      9  C7A BZF d   1      -0.102   0.015   0.893  0.00  0.00     0.058 A 
ENDROOT
TORSDOF 0
ENDMDL
