MODEL 1
REMARK minimizedAffinity 1.03919613
REMARK minimizedRMSD -1
REMARK  0 active torsions:
REMARK  status: ('A' for Active; 'I' for Inactive)
ROOT
ATOM      1  O1  BZF d   1       1.163  -1.202   3.748  0.00  0.00    -0.204 OA
ATOM      2  C2  BZF d   1       1.867  -0.555   2.751  0.00  0.00     0.174 A 
ATOM      3  C3  BZF d   1       1.026  -0.005   1.851  0.00  0.00    -0.012 A 
ATOM      4  C3A BZF d   1      -0.287  -0.251   2.364  0.00  0.00    -0.107 A 
ATOM      5  C4  BZF d   1      -1.540   0.066   1.925  0.00  0.00     0.055 A 
ATOM      6  C5  BZF d   1      -2.617  -0.385   2.620  0.00  0.00    -0.016 A 
ATOM      7  C6  BZF d   1      -2.477  -1.158   3.754  0.00  0.00     0.022 A 
ATOM      8  C7  BZF d   1      -1.254  -1.494   4.231  0.00  0.00     0.029 A 
ATOM      9  C7A BZF d   1      -0.163  -1.012   3.549  0.00  0.00     0.058 A 
ENDROOT
TORSDOF 0
ENDMDL
