MODEL 1
REMARK minimizedAffinity -3.00357103
REMARK minimizedRMSD -1
REMARK  0 active torsions:
REMARK  status: ('A' for Active; 'I' for Inactive)
ROOT
ATOM      1  O1  BZF d   1       1.244  -1.401   3.417  0.00  0.00    -0.204 OA
ATOM      2  C2  BZF d   1       0.609  -1.634   4.622  0.00  0.00     0.174 A 
ATOM      3  C3  BZF d   1      -0.609  -1.056   4.641  0.00  0.00    -0.012 A 
ATOM      4  C3A BZF d   1      -0.782  -0.500   3.334  0.00  0.00    -0.107 A 
ATOM      5  C4  BZF d   1      -1.797   0.187   2.733  0.00  0.00     0.055 A 
ATOM      6  C5  BZF d   1      -1.621   0.654   1.469  0.00  0.00    -0.016 A 
ATOM      7  C6  BZF d   1      -0.443   0.455   0.779  0.00  0.00     0.022 A 
ATOM      8  C7  BZF d   1       0.590  -0.225   1.332  0.00  0.00     0.029 A 
ATOM      9  C7A BZF d   1       0.403  -0.726   2.597  0.00  0.00     0.058 A 
ENDROOT
TORSDOF 0
ENDMDL
