MODEL 1
REMARK minimizedAffinity 2.37816381
REMARK minimizedRMSD -1
REMARK  0 active torsions:
REMARK  status: ('A' for Active; 'I' for Inactive)
ROOT
ATOM      1  O1  BZF d   1      -0.866  -0.899   3.073  0.00  0.00    -0.204 OA
ATOM      2  C2  BZF d   1       0.390  -1.214   3.556  0.00  0.00     0.174 A 
ATOM      3  C3  BZF d   1       1.327  -1.035   2.603  0.00  0.00    -0.012 A 
ATOM      4  C3A BZF d   1       0.624  -0.493   1.480  0.00  0.00    -0.107 A 
ATOM      5  C4  BZF d   1       1.012  -0.090   0.235  0.00  0.00     0.055 A 
ATOM      6  C5  BZF d   1       0.068   0.324  -0.650  0.00  0.00    -0.016 A 
ATOM      7  C6  BZF d   1      -1.273   0.342  -0.325  0.00  0.00     0.022 A 
ATOM      8  C7  BZF d   1      -1.706  -0.044   0.900  0.00  0.00     0.029 A 
ATOM      9  C7A BZF d   1      -0.750  -0.431   1.807  0.00  0.00     0.058 A 
ENDROOT
TORSDOF 0
ENDMDL
