MODEL 1
REMARK minimizedAffinity 4.01009035
REMARK minimizedRMSD -1
REMARK  0 active torsions:
REMARK  status: ('A' for Active; 'I' for Inactive)
ROOT
ATOM      1  O1  BZF d   1      -2.303   0.405   2.933  0.00  0.00    -0.204 OA
ATOM      2  C2  BZF d   1      -2.477   0.841   1.634  0.00  0.00     0.174 A 
ATOM      3  C3  BZF d   1      -1.314   0.795   0.954  0.00  0.00    -0.012 A 
ATOM      4  C3A BZF d   1      -0.371   0.212   1.860  0.00  0.00    -0.107 A 
ATOM      5  C4  BZF d   1       0.952  -0.108   1.759  0.00  0.00     0.055 A 
ATOM      6  C5  BZF d   1       1.598  -0.596   2.851  0.00  0.00    -0.016 A 
ATOM      7  C6  BZF d   1       0.954  -0.771   4.058  0.00  0.00     0.022 A 
ATOM      8  C7  BZF d   1      -0.360  -0.472   4.205  0.00  0.00     0.029 A 
ATOM      9  C7A BZF d   1      -1.024  -0.010   3.094  0.00  0.00     0.058 A 
ENDROOT
TORSDOF 0
ENDMDL
