MODEL 1
REMARK minimizedAffinity 2.20869851
REMARK minimizedRMSD -1
REMARK  0 active torsions:
REMARK  status: ('A' for Active; 'I' for Inactive)
ROOT
ATOM      1  O1  BZF d   1       0.110  -1.016   4.319  0.00  0.00    -0.204 OA
ATOM      2  C2  BZF d   1      -0.433  -1.555   5.469  0.00  0.00     0.174 A 
ATOM      3  C3  BZF d   1      -1.780  -1.562   5.404  0.00  0.00    -0.012 A 
ATOM      4  C3A BZF d   1      -2.096  -1.076   4.096  0.00  0.00    -0.107 A 
ATOM      5  C4  BZF d   1      -3.271  -0.868   3.431  0.00  0.00     0.055 A 
ATOM      6  C5  BZF d   1      -3.237  -0.314   2.190  0.00  0.00    -0.016 A 
ATOM      7  C6  BZF d   1      -2.050   0.048   1.588  0.00  0.00     0.022 A 
ATOM      8  C7  BZF d   1      -0.860  -0.144   2.207  0.00  0.00     0.029 A 
ATOM      9  C7A BZF d   1      -0.888  -0.734   3.447  0.00  0.00     0.058 A 
ENDROOT
TORSDOF 0
ENDMDL
