MODEL 1
REMARK minimizedAffinity 0.254924208
REMARK minimizedRMSD -1
REMARK  0 active torsions:
REMARK  status: ('A' for Active; 'I' for Inactive)
ROOT
ATOM      1  O1  BZF d   1       1.252  -0.898   2.926  0.00  0.00    -0.204 OA
ATOM      2  C2  BZF d   1       0.623  -1.082   4.142  0.00  0.00     0.174 A 
ATOM      3  C3  BZF d   1      -0.697  -0.820   4.043  0.00  0.00    -0.012 A 
ATOM      4  C3A BZF d   1      -0.921  -0.538   2.658  0.00  0.00    -0.107 A 
ATOM      5  C4  BZF d   1      -2.034  -0.222   1.933  0.00  0.00     0.055 A 
ATOM      6  C5  BZF d   1      -1.902   0.065   0.611  0.00  0.00    -0.016 A 
ATOM      7  C6  BZF d   1      -0.673   0.049  -0.016  0.00  0.00     0.022 A 
ATOM      8  C7  BZF d   1       0.459  -0.265   0.661  0.00  0.00     0.029 A 
ATOM      9  C7A BZF d   1       0.324  -0.587   1.989  0.00  0.00     0.058 A 
ENDROOT
TORSDOF 0
ENDMDL
