MODEL 1
REMARK minimizedAffinity 5.01810408
REMARK minimizedRMSD -1
REMARK  0 active torsions:
REMARK  status: ('A' for Active; 'I' for Inactive)
ROOT
ATOM      1  C   UNL d   1       0.149  -1.594  -0.234  0.00  0.00    -0.002 A 
ATOM      2  C1  UNL d   1       1.515  -1.827  -0.161  0.00  0.00     0.010 A 
ATOM      3  C2  UNL d   1       2.003  -3.045   0.317  0.00  0.00     0.041 A 
ATOM      4  C3  UNL d   1       1.086  -4.034   0.723  0.00  0.00    -0.075 A 
ATOM      5  S   UNL d   1       1.453  -5.601   1.342  0.00  0.00     0.015 SA
ATOM      6  C4  UNL d   1      -0.194  -5.998   1.522  0.00  0.00     0.022 A 
ATOM      7  C5  UNL d   1      -1.018  -4.972   1.126  0.00  0.00     0.026 A 
ATOM      8  C6  UNL d   1      -0.294  -3.823   0.659  0.00  0.00    -0.082 A 
ATOM      9  C7  UNL d   1      -0.758  -2.578   0.170  0.00  0.00     0.045 A 
ENDROOT
TORSDOF 0
ENDMDL
