MODEL 1
REMARK minimizedAffinity -3.94715357
REMARK minimizedRMSD -1
REMARK  0 active torsions:
REMARK  status: ('A' for Active; 'I' for Inactive)
ROOT
ATOM      1  C   UNL d   1       1.369  -1.071  -0.903  0.00  0.00    -0.002 A 
ATOM      2  C1  UNL d   1       0.013  -0.889  -0.671  0.00  0.00     0.010 A 
ATOM      3  C2  UNL d   1      -0.754  -1.909  -0.106  0.00  0.00     0.041 A 
ATOM      4  C3  UNL d   1      -0.129  -3.127   0.228  0.00  0.00    -0.075 A 
ATOM      5  S   UNL d   1      -0.869  -4.516   0.932  0.00  0.00     0.015 SA
ATOM      6  C4  UNL d   1       0.598  -5.384   0.942  0.00  0.00     0.022 A 
ATOM      7  C5  UNL d   1       1.637  -4.647   0.425  0.00  0.00     0.026 A 
ATOM      8  C6  UNL d   1       1.235  -3.334   0.006  0.00  0.00    -0.082 A 
ATOM      9  C7  UNL d   1       1.986  -2.280  -0.570  0.00  0.00     0.045 A 
ENDROOT
TORSDOF 0
ENDMDL
