MODEL 1
REMARK minimizedAffinity 0.908071876
REMARK minimizedRMSD -1
REMARK  0 active torsions:
REMARK  status: ('A' for Active; 'I' for Inactive)
ROOT
ATOM      1  C   UNL d   1      -0.076  -3.525   1.169  0.00  0.00    -0.002 A 
ATOM      2  C1  UNL d   1       1.220  -3.898   0.843  0.00  0.00     0.010 A 
ATOM      3  C2  UNL d   1       2.006  -3.090   0.020  0.00  0.00     0.041 A 
ATOM      4  C3  UNL d   1       1.463  -1.887  -0.474  0.00  0.00    -0.075 A 
ATOM      5  S   UNL d   1       2.240  -0.739  -1.498  0.00  0.00     0.015 SA
ATOM      6  C4  UNL d   1       0.870   0.275  -1.526  0.00  0.00     0.022 A 
ATOM      7  C5  UNL d   1      -0.164  -0.235  -0.778  0.00  0.00     0.026 A 
ATOM      8  C6  UNL d   1       0.160  -1.490  -0.159  0.00  0.00    -0.082 A 
ATOM      9  C7  UNL d   1      -0.612  -2.331   0.678  0.00  0.00     0.045 A 
ENDROOT
TORSDOF 0
ENDMDL
