MODEL 1
REMARK minimizedAffinity 11.0637732
REMARK minimizedRMSD -1
REMARK  0 active torsions:
REMARK  status: ('A' for Active; 'I' for Inactive)
ROOT
ATOM      1  C   UNL d   1       0.350   0.227  -1.328  0.00  0.00    -0.002 A 
ATOM      2  C1  UNL d   1      -0.377  -0.877  -1.751  0.00  0.00     0.010 A 
ATOM      3  C2  UNL d   1       0.066  -2.170  -1.468  0.00  0.00     0.041 A 
ATOM      4  C3  UNL d   1       1.262  -2.338  -0.743  0.00  0.00    -0.075 A 
ATOM      5  S   UNL d   1       1.997  -3.827  -0.280  0.00  0.00     0.015 SA
ATOM      6  C4  UNL d   1       3.293  -3.033   0.491  0.00  0.00     0.022 A 
ATOM      7  C5  UNL d   1       3.184  -1.665   0.407  0.00  0.00     0.026 A 
ATOM      8  C6  UNL d   1       2.011  -1.242  -0.305  0.00  0.00    -0.082 A 
ATOM      9  C7  UNL d   1       1.536   0.057  -0.609  0.00  0.00     0.045 A 
ENDROOT
TORSDOF 0
ENDMDL
