MODEL 1
REMARK minimizedAffinity 7.26411104
REMARK minimizedRMSD -1
REMARK  0 active torsions:
REMARK  status: ('A' for Active; 'I' for Inactive)
ROOT
ATOM      1  C   UNL d   1      -0.015  -0.497  -1.151  0.00  0.00    -0.002 A 
ATOM      2  C1  UNL d   1       1.364  -0.580  -1.288  0.00  0.00     0.010 A 
ATOM      3  C2  UNL d   1       2.064  -1.673  -0.775  0.00  0.00     0.041 A 
ATOM      4  C3  UNL d   1       1.348  -2.693  -0.116  0.00  0.00    -0.075 A 
ATOM      5  S   UNL d   1       1.994  -4.126   0.591  0.00  0.00     0.015 SA
ATOM      6  C4  UNL d   1       0.456  -4.662   1.092  0.00  0.00     0.022 A 
ATOM      7  C5  UNL d   1      -0.538  -3.781   0.736  0.00  0.00     0.026 A 
ATOM      8  C6  UNL d   1      -0.040  -2.632   0.034  0.00  0.00    -0.082 A 
ATOM      9  C7  UNL d   1      -0.721  -1.510  -0.497  0.00  0.00     0.045 A 
ENDROOT
TORSDOF 0
ENDMDL
