MODEL 1
REMARK minimizedAffinity -4.70770073
REMARK minimizedRMSD -1
REMARK  0 active torsions:
REMARK  status: ('A' for Active; 'I' for Inactive)
ROOT
ATOM      1  C   UNL d   1       1.351  -0.145  -0.439  0.00  0.00    -0.002 A 
ATOM      2  C1  UNL d   1       0.029  -0.390  -0.782  0.00  0.00     0.010 A 
ATOM      3  C2  UNL d   1      -0.509  -1.674  -0.666  0.00  0.00     0.041 A 
ATOM      4  C3  UNL d   1       0.311  -2.716  -0.192  0.00  0.00    -0.075 A 
ATOM      5  S   UNL d   1      -0.132  -4.367   0.033  0.00  0.00     0.015 SA
ATOM      6  C4  UNL d   1       1.423  -4.786   0.592  0.00  0.00     0.022 A 
ATOM      7  C5  UNL d   1       2.272  -3.705   0.612  0.00  0.00     0.026 A 
ATOM      8  C6  UNL d   1       1.645  -2.494   0.161  0.00  0.00    -0.082 A 
ATOM      9  C7  UNL d   1       2.162  -1.182   0.031  0.00  0.00     0.045 A 
ENDROOT
TORSDOF 0
ENDMDL
