MODEL 1
REMARK minimizedAffinity -0.119739048
REMARK minimizedRMSD -1
REMARK  0 active torsions:
REMARK  status: ('A' for Active; 'I' for Inactive)
ROOT
ATOM      1  C   UNL d   1       1.981   0.152  -0.746  0.00  0.00    -0.002 A 
ATOM      2  C1  UNL d   1       3.148  -0.518  -0.408  0.00  0.00     0.010 A 
ATOM      3  C2  UNL d   1       3.102  -1.831   0.066  0.00  0.00     0.041 A 
ATOM      4  C3  UNL d   1       1.851  -2.466   0.193  0.00  0.00    -0.075 A 
ATOM      5  S   UNL d   1       1.551  -4.070   0.750  0.00  0.00     0.015 SA
ATOM      6  C4  UNL d   1      -0.134  -3.903   0.552  0.00  0.00     0.022 A 
ATOM      7  C5  UNL d   1      -0.476  -2.661   0.074  0.00  0.00     0.026 A 
ATOM      8  C6  UNL d   1       0.662  -1.812  -0.142  0.00  0.00    -0.082 A 
ATOM      9  C7  UNL d   1       0.742  -0.481  -0.618  0.00  0.00     0.045 A 
ENDROOT
TORSDOF 0
ENDMDL
