MODEL 1
REMARK minimizedAffinity 0.701115966
REMARK minimizedRMSD -1
REMARK  0 active torsions:
REMARK  status: ('A' for Active; 'I' for Inactive)
ROOT
ATOM      1  C   UNL d   1       0.924  -0.710  -0.310  0.00  0.00    -0.002 A 
ATOM      2  C1  UNL d   1       0.212  -0.645  -1.500  0.00  0.00     0.010 A 
ATOM      3  C2  UNL d   1      -0.730  -1.625  -1.818  0.00  0.00     0.041 A 
ATOM      4  C3  UNL d   1      -0.948  -2.681  -0.911  0.00  0.00    -0.075 A 
ATOM      5  S   UNL d   1      -2.052  -3.993  -1.090  0.00  0.00     0.015 SA
ATOM      6  C4  UNL d   1      -1.606  -4.670   0.409  0.00  0.00     0.022 A 
ATOM      7  C5  UNL d   1      -0.639  -3.927   1.044  0.00  0.00     0.026 A 
ATOM      8  C6  UNL d   1      -0.244  -2.768   0.293  0.00  0.00    -0.082 A 
ATOM      9  C7  UNL d   1       0.705  -1.759   0.587  0.00  0.00     0.045 A 
ENDROOT
TORSDOF 0
ENDMDL
