MODEL 1
REMARK minimizedAffinity 0.0109541304
REMARK minimizedRMSD -1
REMARK  0 active torsions:
REMARK  status: ('A' for Active; 'I' for Inactive)
ROOT
ATOM      1  C   UNL d   1       2.012  -3.944   0.505  0.00  0.00    -0.002 A 
ATOM      2  C1  UNL d   1       0.706  -4.394   0.635  0.00  0.00     0.010 A 
ATOM      3  C2  UNL d   1      -0.366  -3.581   0.261  0.00  0.00     0.041 A 
ATOM      4  C3  UNL d   1      -0.101  -2.297  -0.252  0.00  0.00    -0.075 A 
ATOM      5  S   UNL d   1      -1.255  -1.127  -0.775  0.00  0.00     0.015 SA
ATOM      6  C4  UNL d   1      -0.041  -0.003  -1.185  0.00  0.00     0.022 A 
ATOM      7  C5  UNL d   1       1.219  -0.491  -0.935  0.00  0.00     0.026 A 
ATOM      8  C6  UNL d   1       1.206  -1.821  -0.393  0.00  0.00    -0.082 A 
ATOM      9  C7  UNL d   1       2.271  -2.669  -0.005  0.00  0.00     0.045 A 
ENDROOT
TORSDOF 0
ENDMDL
