MODEL 1
REMARK minimizedAffinity -0.40320608
REMARK minimizedRMSD -1
REMARK  0 active torsions:
REMARK  status: ('A' for Active; 'I' for Inactive)
ROOT
ATOM      1  C   UNL d   1       0.084  -0.483  -1.473  0.00  0.00    -0.002 A 
ATOM      2  C1  UNL d   1       1.459  -0.667  -1.508  0.00  0.00     0.010 A 
ATOM      3  C2  UNL d   1       2.051  -1.730  -0.822  0.00  0.00     0.041 A 
ATOM      4  C3  UNL d   1       1.230  -2.614  -0.095  0.00  0.00    -0.075 A 
ATOM      5  S   UNL d   1       1.733  -3.986   0.820  0.00  0.00     0.015 SA
ATOM      6  C4  UNL d   1       0.134  -4.360   1.278  0.00  0.00     0.022 A 
ATOM      7  C5  UNL d   1      -0.774  -3.471   0.755  0.00  0.00     0.026 A 
ATOM      8  C6  UNL d   1      -0.158  -2.450  -0.046  0.00  0.00    -0.082 A 
ATOM      9  C7  UNL d   1      -0.727  -1.362  -0.751  0.00  0.00     0.045 A 
ENDROOT
TORSDOF 0
ENDMDL
