MODEL 1
REMARK minimizedAffinity -0.129177585
REMARK minimizedRMSD -1
REMARK  0 active torsions:
REMARK  status: ('A' for Active; 'I' for Inactive)
ROOT
ATOM      1  C   UNL d   1       2.231  -0.853  -0.980  0.00  0.00    -0.002 A 
ATOM      2  C1  UNL d   1       0.858  -0.840  -1.177  0.00  0.00     0.010 A 
ATOM      3  C2  UNL d   1       0.063  -1.889  -0.712  0.00  0.00     0.041 A 
ATOM      4  C3  UNL d   1       0.678  -2.962  -0.036  0.00  0.00    -0.075 A 
ATOM      5  S   UNL d   1      -0.095  -4.355   0.623  0.00  0.00     0.015 SA
ATOM      6  C4  UNL d   1       1.379  -5.000   1.183  0.00  0.00     0.022 A 
ATOM      7  C5  UNL d   1       2.446  -4.186   0.883  0.00  0.00     0.026 A 
ATOM      8  C6  UNL d   1       2.059  -2.997   0.176  0.00  0.00    -0.082 A 
ATOM      9  C7  UNL d   1       2.837  -1.919  -0.309  0.00  0.00     0.045 A 
ENDROOT
TORSDOF 0
ENDMDL
