MODEL 1
REMARK minimizedAffinity 1.1427629
REMARK minimizedRMSD -1
REMARK  0 active torsions:
REMARK  status: ('A' for Active; 'I' for Inactive)
ROOT
ATOM      1  C   UNL d   1       1.669  -0.771  -0.902  0.00  0.00    -0.002 A 
ATOM      2  C1  UNL d   1       0.286  -0.655  -0.923  0.00  0.00     0.010 A 
ATOM      3  C2  UNL d   1      -0.522  -1.726  -0.537  0.00  0.00     0.041 A 
ATOM      4  C3  UNL d   1       0.089  -2.926  -0.122  0.00  0.00    -0.075 A 
ATOM      5  S   UNL d   1      -0.700  -4.369   0.396  0.00  0.00     0.015 SA
ATOM      6  C4  UNL d   1       0.781  -5.172   0.660  0.00  0.00     0.022 A 
ATOM      7  C5  UNL d   1       1.860  -4.374   0.364  0.00  0.00     0.026 A 
ATOM      8  C6  UNL d   1       1.479  -3.066  -0.091  0.00  0.00    -0.082 A 
ATOM      9  C7  UNL d   1       2.271  -1.962  -0.489  0.00  0.00     0.045 A 
ENDROOT
TORSDOF 0
ENDMDL
