MODEL 1
REMARK minimizedAffinity 4.43907833
REMARK minimizedRMSD -1
REMARK  0 active torsions:
REMARK  status: ('A' for Active; 'I' for Inactive)
ROOT
ATOM      1  C   UNL d   1       0.931  -4.244   1.102  0.00  0.00    -0.002 A 
ATOM      2  C1  UNL d   1      -0.380  -4.189   0.648  0.00  0.00     0.010 A 
ATOM      3  C2  UNL d   1      -0.749  -3.283  -0.347  0.00  0.00     0.041 A 
ATOM      4  C3  UNL d   1       0.230  -2.425  -0.886  0.00  0.00    -0.075 A 
ATOM      5  S   UNL d   1       0.009  -1.235  -2.113  0.00  0.00     0.015 SA
ATOM      6  C4  UNL d   1       1.648  -0.772  -2.065  0.00  0.00     0.022 A 
ATOM      7  C5  UNL d   1       2.362  -1.497  -1.140  0.00  0.00     0.026 A 
ATOM      8  C6  UNL d   1       1.556  -2.462  -0.446  0.00  0.00    -0.082 A 
ATOM      9  C7  UNL d   1       1.899  -3.392   0.566  0.00  0.00     0.045 A 
ENDROOT
TORSDOF 0
ENDMDL
