MODEL 1
REMARK minimizedAffinity -1.20170403
REMARK minimizedRMSD -1
REMARK  0 active torsions:
REMARK  status: ('A' for Active; 'I' for Inactive)
ROOT
ATOM      1  C   UNL d   1       1.420  -5.217   1.272  0.00  0.00    -0.002 A 
ATOM      2  C1  UNL d   1       0.045  -5.297   1.445  0.00  0.00     0.010 A 
ATOM      3  C2  UNL d   1      -0.781  -4.236   1.070  0.00  0.00     0.041 A 
ATOM      4  C3  UNL d   1      -0.197  -3.083   0.509  0.00  0.00    -0.075 A 
ATOM      5  S   UNL d   1      -1.011  -1.661  -0.025  0.00  0.00     0.015 SA
ATOM      6  C4  UNL d   1       0.446  -0.914  -0.498  0.00  0.00     0.022 A 
ATOM      7  C5  UNL d   1       1.537  -1.716  -0.260  0.00  0.00     0.026 A 
ATOM      8  C6  UNL d   1       1.184  -2.980   0.324  0.00  0.00    -0.082 A 
ATOM      9  C7  UNL d   1       1.995  -4.072   0.715  0.00  0.00     0.045 A 
ENDROOT
TORSDOF 0
ENDMDL
