MODEL 1
REMARK minimizedAffinity -5.2583847
REMARK minimizedRMSD -1
REMARK  0 active torsions:
REMARK  status: ('A' for Active; 'I' for Inactive)
ROOT
ATOM      1  C   UNL d   1       1.677  -1.241   2.807  0.00  0.00     0.020 A 
ATOM      2  C1  UNL d   1       2.452  -1.339   1.652  0.00  0.00     0.020 A 
ATOM      3  C2  UNL d   1       1.936  -0.913   0.427  0.00  0.00     0.034 A 
ATOM      4  C3  UNL d   1       0.641  -0.387   0.354  0.00  0.00     0.017 A 
ATOM      5  C4  UNL d   1      -0.136  -0.290   1.513  0.00  0.00     0.017 A 
ATOM      6  C5  UNL d   1       0.386  -0.718   2.738  0.00  0.00     0.034 A 
ATOM      7 Cl   UNL d   1      -1.743   0.348   1.502  0.00  0.00    -0.070 Cl
ATOM      8 Cl1  UNL d   1       0.066   0.121  -1.195  0.00  0.00    -0.070 Cl
ENDROOT
TORSDOF 0
ENDMDL
