MODEL 1
REMARK minimizedAffinity -4.65335083
REMARK minimizedRMSD -1
REMARK  0 active torsions:
REMARK  status: ('A' for Active; 'I' for Inactive)
ROOT
ATOM      1  C   UNL d   1       1.347  -1.615   2.486  0.00  0.00     0.020 A 
ATOM      2  C1  UNL d   1       2.278  -1.502   1.455  0.00  0.00     0.020 A 
ATOM      3  C2  UNL d   1       1.979  -0.739   0.324  0.00  0.00     0.034 A 
ATOM      4  C3  UNL d   1       0.745  -0.087   0.222  0.00  0.00     0.017 A 
ATOM      5  C4  UNL d   1      -0.190  -0.201   1.257  0.00  0.00     0.017 A 
ATOM      6  C5  UNL d   1       0.116  -0.966   2.387  0.00  0.00     0.034 A 
ATOM      7 Cl   UNL d   1      -1.733   0.575   1.203  0.00  0.00    -0.070 Cl
ATOM      8 Cl1  UNL d   1       0.442   0.840  -1.205  0.00  0.00    -0.070 Cl
ENDROOT
TORSDOF 0
ENDMDL
