MODEL 1
REMARK minimizedAffinity -6.27588129
REMARK minimizedRMSD -1
REMARK  0 active torsions:
REMARK  status: ('A' for Active; 'I' for Inactive)
ROOT
ATOM      1  C   UNL d   1       2.510  -1.929   1.046  0.00  0.00     0.020 A 
ATOM      2  C1  UNL d   1       1.837  -1.842   2.264  0.00  0.00     0.020 A 
ATOM      3  C2  UNL d   1       0.602  -1.193   2.334  0.00  0.00     0.034 A 
ATOM      4  C3  UNL d   1       0.037  -0.630   1.184  0.00  0.00     0.017 A 
ATOM      5  C4  UNL d   1       0.713  -0.718  -0.038  0.00  0.00     0.017 A 
ATOM      6  C5  UNL d   1       1.949  -1.369  -0.102  0.00  0.00     0.034 A 
ATOM      7 Cl   UNL d   1       0.079  -0.047  -1.499  0.00  0.00    -0.070 Cl
ATOM      8 Cl1  UNL d   1      -1.493   0.157   1.344  0.00  0.00    -0.070 Cl
ENDROOT
TORSDOF 0
ENDMDL
