MODEL 1
REMARK minimizedAffinity -4.5658164
REMARK minimizedRMSD -1
REMARK  0 active torsions:
REMARK  status: ('A' for Active; 'I' for Inactive)
ROOT
ATOM      1  C   UNL d   1       2.725  -1.957   1.745  0.00  0.00     0.020 A 
ATOM      2  C1  UNL d   1       1.975  -1.451   2.806  0.00  0.00     0.020 A 
ATOM      3  C2  UNL d   1       0.784  -0.767   2.555  0.00  0.00     0.034 A 
ATOM      4  C3  UNL d   1       0.338  -0.587   1.241  0.00  0.00     0.017 A 
ATOM      5  C4  UNL d   1       1.092  -1.096   0.176  0.00  0.00     0.017 A 
ATOM      6  C5  UNL d   1       2.284  -1.780   0.433  0.00  0.00     0.034 A 
ATOM      7 Cl   UNL d   1       0.607  -0.913  -1.473  0.00  0.00    -0.070 Cl
ATOM      8 Cl1  UNL d   1      -1.144   0.268   1.004  0.00  0.00    -0.070 Cl
ENDROOT
TORSDOF 0
ENDMDL
