MODEL 1
REMARK minimizedAffinity -4.17302418
REMARK minimizedRMSD -1
REMARK  0 active torsions:
REMARK  status: ('A' for Active; 'I' for Inactive)
ROOT
ATOM      1  C   UNL d   1       2.326  -0.700   1.421  0.00  0.00     0.020 A 
ATOM      2  C1  UNL d   1       1.434  -1.061   2.431  0.00  0.00     0.020 A 
ATOM      3  C2  UNL d   1       0.061  -0.888   2.244  0.00  0.00     0.034 A 
ATOM      4  C3  UNL d   1      -0.425  -0.352   1.046  0.00  0.00     0.017 A 
ATOM      5  C4  UNL d   1       0.471   0.010   0.033  0.00  0.00     0.017 A 
ATOM      6  C5  UNL d   1       1.845  -0.166   0.225  0.00  0.00     0.034 A 
ATOM      7 Cl   UNL d   1      -0.053   0.677  -1.473  0.00  0.00    -0.070 Cl
ATOM      8 Cl1  UNL d   1      -2.135  -0.166   0.883  0.00  0.00    -0.070 Cl
ENDROOT
TORSDOF 0
ENDMDL
