MODEL 1
REMARK minimizedAffinity -4.37131739
REMARK minimizedRMSD -1
REMARK  0 active torsions:
REMARK  status: ('A' for Active; 'I' for Inactive)
ROOT
ATOM      1  C   UNL d   1      -0.910  -0.219   2.152  0.00  0.00     0.020 A 
ATOM      2  C1  UNL d   1       0.276  -0.660   2.738  0.00  0.00     0.020 A 
ATOM      3  C2  UNL d   1       1.347  -1.054   1.934  0.00  0.00     0.034 A 
ATOM      4  C3  UNL d   1       1.235  -1.008   0.540  0.00  0.00     0.017 A 
ATOM      5  C4  UNL d   1       0.044  -0.565  -0.047  0.00  0.00     0.017 A 
ATOM      6  C5  UNL d   1      -1.025  -0.172   0.763  0.00  0.00     0.034 A 
ATOM      7 Cl   UNL d   1      -0.169  -0.480  -1.760  0.00  0.00    -0.070 Cl
ATOM      8 Cl1  UNL d   1       2.601  -1.509  -0.393  0.00  0.00    -0.070 Cl
ENDROOT
TORSDOF 0
ENDMDL
