MODEL 1
REMARK minimizedAffinity -4.76233959
REMARK minimizedRMSD -1
REMARK  0 active torsions:
REMARK  status: ('A' for Active; 'I' for Inactive)
ROOT
ATOM      1  C   UNL d   1       2.272  -2.668   0.775  0.00  0.00     0.020 A 
ATOM      2  C1  UNL d   1       1.742  -2.629   2.064  0.00  0.00     0.020 A 
ATOM      3  C2  UNL d   1       0.622  -1.840   2.335  0.00  0.00     0.034 A 
ATOM      4  C3  UNL d   1       0.029  -1.087   1.316  0.00  0.00     0.017 A 
ATOM      5  C4  UNL d   1       0.562  -1.126   0.022  0.00  0.00     0.017 A 
ATOM      6  C5  UNL d   1       1.683  -1.918  -0.243  0.00  0.00     0.034 A 
ATOM      7 Cl   UNL d   1      -0.116  -0.224  -1.287  0.00  0.00    -0.070 Cl
ATOM      8 Cl1  UNL d   1      -1.354  -0.133   1.722  0.00  0.00    -0.070 Cl
ENDROOT
TORSDOF 0
ENDMDL
