MODEL 1
REMARK minimizedAffinity -5.3849864
REMARK minimizedRMSD -1
REMARK  0 active torsions:
REMARK  status: ('A' for Active; 'I' for Inactive)
ROOT
ATOM      1  C   UNL d   1      -0.639   0.271   1.822  0.00  0.00     0.020 A 
ATOM      2  C1  UNL d   1       0.374  -0.093   2.708  0.00  0.00     0.020 A 
ATOM      3  C2  UNL d   1       1.447  -0.868   2.261  0.00  0.00     0.034 A 
ATOM      4  C3  UNL d   1       1.508  -1.282   0.926  0.00  0.00     0.017 A 
ATOM      5  C4  UNL d   1       0.490  -0.917   0.037  0.00  0.00     0.017 A 
ATOM      6  C5  UNL d   1      -0.581  -0.140   0.490  0.00  0.00     0.034 A 
ATOM      7 Cl   UNL d   1       0.497  -1.389  -1.625  0.00  0.00    -0.070 Cl
ATOM      8 Cl1  UNL d   1       2.864  -2.239   0.443  0.00  0.00    -0.070 Cl
ENDROOT
TORSDOF 0
ENDMDL
