MODEL 1
REMARK minimizedAffinity -5.83147478
REMARK minimizedRMSD -1
REMARK  0 active torsions:
REMARK  status: ('A' for Active; 'I' for Inactive)
ROOT
ATOM      1  C   UNL d   1      -0.857   0.468   0.214  0.00  0.00     0.020 A 
ATOM      2  C1  UNL d   1      -0.213  -0.134  -0.866  0.00  0.00     0.020 A 
ATOM      3  C2  UNL d   1       0.916  -0.929  -0.652  0.00  0.00     0.034 A 
ATOM      4  C3  UNL d   1       1.404  -1.122   0.646  0.00  0.00     0.017 A 
ATOM      5  C4  UNL d   1       0.757  -0.516   1.729  0.00  0.00     0.017 A 
ATOM      6  C5  UNL d   1      -0.372   0.278   1.509  0.00  0.00     0.034 A 
ATOM      7 Cl   UNL d   1       1.301  -0.709   3.358  0.00  0.00    -0.070 Cl
ATOM      8 Cl1  UNL d   1       2.804  -2.117   0.837  0.00  0.00    -0.070 Cl
ENDROOT
TORSDOF 0
ENDMDL
