MODEL 1
REMARK minimizedAffinity -2.52157307
REMARK minimizedRMSD -1
REMARK  0 active torsions:
REMARK  status: ('A' for Active; 'I' for Inactive)
ROOT
ATOM      1  O1  BZF d   1      -1.910  -0.127   3.042  0.00  0.00    -0.204 OA
ATOM      2  C2  BZF d   1      -2.889  -0.954   2.527  0.00  0.00     0.174 A 
ATOM      3  C3  BZF d   1      -2.670  -1.198   1.219  0.00  0.00    -0.012 A 
ATOM      4  C3A BZF d   1      -1.428  -0.552   0.919  0.00  0.00    -0.107 A 
ATOM      5  C4  BZF d   1      -0.674  -0.449  -0.215  0.00  0.00     0.055 A 
ATOM      6  C5  BZF d   1       0.450   0.315  -0.193  0.00  0.00    -0.016 A 
ATOM      7  C6  BZF d   1       0.846   0.991   0.942  0.00  0.00     0.022 A 
ATOM      8  C7  BZF d   1       0.133   0.915   2.092  0.00  0.00     0.029 A 
ATOM      9  C7A BZF d   1      -0.986   0.118   2.082  0.00  0.00     0.058 A 
ENDROOT
TORSDOF 0
ENDMDL
