MODEL 1
REMARK minimizedAffinity -1.80090106
REMARK minimizedRMSD -1
REMARK  0 active torsions:
REMARK  status: ('A' for Active; 'I' for Inactive)
ROOT
ATOM      1  O1  BZF d   1      -1.658   0.281   2.358  0.00  0.00    -0.204 OA
ATOM      2  C2  BZF d   1      -0.863   1.089   3.147  0.00  0.00     0.174 A 
ATOM      3  C3  BZF d   1       0.291   1.387   2.516  0.00  0.00    -0.012 A 
ATOM      4  C3A BZF d   1       0.173   0.799   1.217  0.00  0.00    -0.107 A 
ATOM      5  C4  BZF d   1       0.991   0.765   0.124  0.00  0.00     0.055 A 
ATOM      6  C5  BZF d   1       0.610   0.044  -0.964  0.00  0.00    -0.016 A 
ATOM      7  C6  BZF d   1      -0.578  -0.658  -0.990  0.00  0.00     0.022 A 
ATOM      8  C7  BZF d   1      -1.424  -0.649   0.068  0.00  0.00     0.029 A 
ATOM      9  C7A BZF d   1      -1.058   0.105   1.156  0.00  0.00     0.058 A 
ENDROOT
TORSDOF 0
ENDMDL
