MODEL 1
REMARK minimizedAffinity -3.67921948
REMARK minimizedRMSD -1
REMARK  0 active torsions:
REMARK  status: ('A' for Active; 'I' for Inactive)
ROOT
ATOM      1  O1  BZF d   1       1.408  -1.080  -0.940  0.00  0.00    -0.204 OA
ATOM      2  C2  BZF d   1       0.303  -0.828  -1.729  0.00  0.00     0.174 A 
ATOM      3  C3  BZF d   1      -0.580  -0.043  -1.079  0.00  0.00    -0.012 A 
ATOM      4  C3A BZF d   1       0.053   0.289   0.161  0.00  0.00    -0.107 A 
ATOM      5  C4  BZF d   1      -0.318   1.054   1.230  0.00  0.00     0.055 A 
ATOM      6  C5  BZF d   1       0.498   1.114   2.314  0.00  0.00    -0.016 A 
ATOM      7  C6  BZF d   1       1.688   0.417   2.367  0.00  0.00     0.022 A 
ATOM      8  C7  BZF d   1       2.100  -0.351   1.330  0.00  0.00     0.029 A 
ATOM      9  C7A BZF d   1       1.294  -0.387   0.219  0.00  0.00     0.058 A 
ENDROOT
TORSDOF 0
ENDMDL
