MODEL 1
REMARK minimizedAffinity -3.52120161
REMARK minimizedRMSD -1
REMARK  0 active torsions:
REMARK  status: ('A' for Active; 'I' for Inactive)
ROOT
ATOM      1  O1  BZF d   1      -1.071   0.477   2.484  0.00  0.00    -0.204 OA
ATOM      2  C2  BZF d   1      -2.263   0.592   1.795  0.00  0.00     0.174 A 
ATOM      3  C3  BZF d   1      -2.105   0.237   0.503  0.00  0.00    -0.012 A 
ATOM      4  C3A BZF d   1      -0.750  -0.211   0.400  0.00  0.00    -0.107 A 
ATOM      5  C4  BZF d   1      -0.000  -0.705  -0.630  0.00  0.00     0.055 A 
ATOM      6  C5  BZF d   1       1.314  -0.979  -0.418  0.00  0.00    -0.016 A 
ATOM      7  C6  BZF d   1       1.911  -0.767   0.808  0.00  0.00     0.022 A 
ATOM      8  C7  BZF d   1       1.207  -0.284   1.860  0.00  0.00     0.029 A 
ATOM      9  C7A BZF d   1      -0.129  -0.036   1.658  0.00  0.00     0.058 A 
ENDROOT
TORSDOF 0
ENDMDL
