MODEL 1
REMARK minimizedAffinity -4.8540082
REMARK minimizedRMSD -1
REMARK  0 active torsions:
REMARK  status: ('A' for Active; 'I' for Inactive)
ROOT
ATOM      1  O1  BZF d   1      -1.637   1.291   2.127  0.00  0.00    -0.204 OA
ATOM      2  C2  BZF d   1      -0.434   1.854   2.505  0.00  0.00     0.174 A 
ATOM      3  C3  BZF d   1       0.578   1.364   1.760  0.00  0.00    -0.012 A 
ATOM      4  C3A BZF d   1      -0.043   0.506   0.799  0.00  0.00    -0.107 A 
ATOM      5  C4  BZF d   1       0.437  -0.256  -0.228  0.00  0.00     0.055 A 
ATOM      6  C5  BZF d   1      -0.427  -1.035  -0.931  0.00  0.00    -0.016 A 
ATOM      7  C6  BZF d   1      -1.773  -1.079  -0.633  0.00  0.00     0.022 A 
ATOM      8  C7  BZF d   1      -2.296  -0.336   0.373  0.00  0.00     0.029 A 
ATOM      9  C7A BZF d   1      -1.432   0.477   1.064  0.00  0.00     0.058 A 
ENDROOT
TORSDOF 0
ENDMDL
