MODEL 1
REMARK minimizedAffinity -1.57085538
REMARK minimizedRMSD -1
REMARK  0 active torsions:
REMARK  status: ('A' for Active; 'I' for Inactive)
ROOT
ATOM      1  O1  BZF d   1      -1.419  -1.021   0.598  0.00  0.00    -0.204 OA
ATOM      2  C2  BZF d   1      -0.833  -0.775  -0.629  0.00  0.00     0.174 A 
ATOM      3  C3  BZF d   1      -0.015   0.294  -0.562  0.00  0.00    -0.012 A 
ATOM      4  C3A BZF d   1      -0.023   0.690   0.813  0.00  0.00    -0.107 A 
ATOM      5  C4  BZF d   1       0.608   1.681   1.509  0.00  0.00     0.055 A 
ATOM      6  C5  BZF d   1       0.328   1.843   2.828  0.00  0.00    -0.016 A 
ATOM      7  C6  BZF d   1      -0.580   1.036   3.482  0.00  0.00     0.022 A 
ATOM      8  C7  BZF d   1      -1.228   0.036   2.835  0.00  0.00     0.029 A 
ATOM      9  C7A BZF d   1      -0.922  -0.151   1.509  0.00  0.00     0.058 A 
ENDROOT
TORSDOF 0
ENDMDL
