MODEL 1
REMARK minimizedAffinity -3.98669982
REMARK minimizedRMSD -1
REMARK  0 active torsions:
REMARK  status: ('A' for Active; 'I' for Inactive)
ROOT
ATOM      1  C   UNL d   1       1.367  -0.900  -0.676  0.00  0.00     0.020 A 
ATOM      2  C1  UNL d   1       0.214  -1.649  -0.447  0.00  0.00     0.020 A 
ATOM      3  C2  UNL d   1      -0.760  -1.179   0.436  0.00  0.00     0.034 A 
ATOM      4  C3  UNL d   1      -0.583   0.044   1.093  0.00  0.00     0.017 A 
ATOM      5  C4  UNL d   1       0.575   0.795   0.863  0.00  0.00     0.017 A 
ATOM      6  C5  UNL d   1       1.547   0.320  -0.022  0.00  0.00     0.034 A 
ATOM      7 Cl   UNL d   1       0.864   2.313   1.638  0.00  0.00    -0.070 Cl
ATOM      8 Cl1  UNL d   1      -1.829   0.564   2.171  0.00  0.00    -0.070 Cl
ENDROOT
TORSDOF 0
ENDMDL
