MODEL 1
REMARK minimizedAffinity -3.86352301
REMARK minimizedRMSD -1
REMARK  0 active torsions:
REMARK  status: ('A' for Active; 'I' for Inactive)
ROOT
ATOM      1  C   UNL d   1      -0.041  -0.306  -1.166  0.00  0.00     0.020 A 
ATOM      2  C1  UNL d   1      -0.451  -1.144  -0.130  0.00  0.00     0.020 A 
ATOM      3  C2  UNL d   1      -0.554  -0.648   1.171  0.00  0.00     0.034 A 
ATOM      4  C3  UNL d   1      -0.246   0.691   1.440  0.00  0.00     0.017 A 
ATOM      5  C4  UNL d   1       0.165   1.532   0.400  0.00  0.00     0.017 A 
ATOM      6  C5  UNL d   1       0.267   1.029  -0.901  0.00  0.00     0.034 A 
ATOM      7 Cl   UNL d   1       0.562   3.195   0.654  0.00  0.00    -0.070 Cl
ATOM      8 Cl1  UNL d   1      -0.396   1.237   3.073  0.00  0.00    -0.070 Cl
ENDROOT
TORSDOF 0
ENDMDL
