MODEL 1
REMARK minimizedAffinity -4.30417204
REMARK minimizedRMSD -1
REMARK  0 active torsions:
REMARK  status: ('A' for Active; 'I' for Inactive)
ROOT
ATOM      1  C   UNL d   1       1.514  -0.551  -1.034  0.00  0.00     0.020 A 
ATOM      2  C1  UNL d   1       0.597  -1.354  -0.357  0.00  0.00     0.020 A 
ATOM      3  C2  UNL d   1      -0.113  -0.839   0.729  0.00  0.00     0.034 A 
ATOM      4  C3  UNL d   1       0.093   0.482   1.143  0.00  0.00     0.017 A 
ATOM      5  C4  UNL d   1       1.014   1.287   0.463  0.00  0.00     0.017 A 
ATOM      6  C5  UNL d   1       1.722   0.767  -0.624  0.00  0.00     0.034 A 
ATOM      7 Cl   UNL d   1       1.322   2.927   0.914  0.00  0.00    -0.070 Cl
ATOM      8 Cl1  UNL d   1      -0.820   1.052   2.494  0.00  0.00    -0.070 Cl
ENDROOT
TORSDOF 0
ENDMDL
