MODEL 1
REMARK minimizedAffinity -3.46516991
REMARK minimizedRMSD -1
REMARK  0 active torsions:
REMARK  status: ('A' for Active; 'I' for Inactive)
ROOT
ATOM      1  C   UNL d   1       0.025  -0.314  -0.517  0.00  0.00     0.020 A 
ATOM      2  C1  UNL d   1      -0.702  -0.993   0.460  0.00  0.00     0.020 A 
ATOM      3  C2  UNL d   1      -0.766  -0.487   1.760  0.00  0.00     0.034 A 
ATOM      4  C3  UNL d   1      -0.101   0.700   2.086  0.00  0.00     0.017 A 
ATOM      5  C4  UNL d   1       0.628   1.381   1.105  0.00  0.00     0.017 A 
ATOM      6  C5  UNL d   1       0.688   0.870  -0.195  0.00  0.00     0.034 A 
ATOM      7 Cl   UNL d   1       1.474   2.852   1.432  0.00  0.00    -0.070 Cl
ATOM      8 Cl1  UNL d   1      -0.223   1.268   3.714  0.00  0.00    -0.070 Cl
ENDROOT
TORSDOF 0
ENDMDL
