MODEL 1
REMARK minimizedAffinity -1.19805062
REMARK minimizedRMSD -1
REMARK  0 active torsions:
REMARK  status: ('A' for Active; 'I' for Inactive)
ROOT
ATOM      1  C   UNL d   1       0.373   1.871   1.880  0.00  0.00     0.020 A 
ATOM      2  C1  UNL d   1      -0.845   1.212   1.719  0.00  0.00     0.020 A 
ATOM      3  C2  UNL d   1      -0.970   0.198   0.767  0.00  0.00     0.034 A 
ATOM      4  C3  UNL d   1       0.125  -0.159  -0.028  0.00  0.00     0.017 A 
ATOM      5  C4  UNL d   1       1.348   0.503   0.135  0.00  0.00     0.017 A 
ATOM      6  C5  UNL d   1       1.467   1.517   1.090  0.00  0.00     0.034 A 
ATOM      7 Cl   UNL d   1       2.743   0.117  -0.809  0.00  0.00    -0.070 Cl
ATOM      8 Cl1  UNL d   1      -0.100  -1.422  -1.185  0.00  0.00    -0.070 Cl
ENDROOT
TORSDOF 0
ENDMDL
