MODEL 1
REMARK minimizedAffinity -1.58883595
REMARK minimizedRMSD -1
REMARK  0 active torsions:
REMARK  status: ('A' for Active; 'I' for Inactive)
ROOT
ATOM      1  C   UNL d   1      -0.188  -0.780  -2.056  0.00  0.00     0.020 A 
ATOM      2  C1  UNL d   1      -0.376  -1.185  -0.735  0.00  0.00     0.020 A 
ATOM      3  C2  UNL d   1      -1.454  -2.009  -0.404  0.00  0.00     0.034 A 
ATOM      4  C3  UNL d   1      -2.348  -2.430  -1.394  0.00  0.00     0.017 A 
ATOM      5  C4  UNL d   1      -2.158  -2.023  -2.720  0.00  0.00     0.017 A 
ATOM      6  C5  UNL d   1      -1.078  -1.198  -3.046  0.00  0.00     0.034 A 
ATOM      7 Cl   UNL d   1      -3.220  -2.503  -3.997  0.00  0.00    -0.070 Cl
ATOM      8 Cl1  UNL d   1      -3.658  -3.449  -0.914  0.00  0.00    -0.070 Cl
ENDROOT
TORSDOF 0
ENDMDL
