MODEL 1
REMARK minimizedAffinity 0.790449858
REMARK minimizedRMSD -1
REMARK  0 active torsions:
REMARK  status: ('A' for Active; 'I' for Inactive)
ROOT
ATOM      1  C   UNL d   1      -0.068  -1.669  -0.816  0.00  0.00     0.020 A 
ATOM      2  C1  UNL d   1      -0.917  -0.934   0.011  0.00  0.00     0.020 A 
ATOM      3  C2  UNL d   1      -0.497   0.293   0.529  0.00  0.00     0.034 A 
ATOM      4  C3  UNL d   1       0.775   0.789   0.221  0.00  0.00     0.017 A 
ATOM      5  C4  UNL d   1       1.626   0.051  -0.610  0.00  0.00     0.017 A 
ATOM      6  C5  UNL d   1       1.200  -1.177  -1.126  0.00  0.00     0.034 A 
ATOM      7 Cl   UNL d   1       3.209   0.598  -1.035  0.00  0.00    -0.070 Cl
ATOM      8 Cl1  UNL d   1       1.228   2.314   0.896  0.00  0.00    -0.070 Cl
ENDROOT
TORSDOF 0
ENDMDL
