MODEL 1
REMARK minimizedAffinity -5.02123356
REMARK minimizedRMSD -1
REMARK  0 active torsions:
REMARK  status: ('A' for Active; 'I' for Inactive)
ROOT
ATOM      1  C   UNL d   1       2.009   1.881   0.020  0.00  0.00     0.020 A 
ATOM      2  C1  UNL d   1       1.541   2.684   1.060  0.00  0.00     0.020 A 
ATOM      3  C2  UNL d   1       0.346   2.362   1.707  0.00  0.00     0.034 A 
ATOM      4  C3  UNL d   1      -0.385   1.235   1.315  0.00  0.00     0.017 A 
ATOM      5  C4  UNL d   1       0.085   0.430   0.271  0.00  0.00     0.017 A 
ATOM      6  C5  UNL d   1       1.282   0.757  -0.373  0.00  0.00     0.034 A 
ATOM      7 Cl   UNL d   1      -0.762  -0.976  -0.269  0.00  0.00    -0.070 Cl
ATOM      8 Cl1  UNL d   1      -1.854   0.897   2.159  0.00  0.00    -0.070 Cl
ENDROOT
TORSDOF 0
ENDMDL
