MODEL 1
REMARK minimizedAffinity -3.27633524
REMARK minimizedRMSD -1
REMARK  0 active torsions:
REMARK  status: ('A' for Active; 'I' for Inactive)
ROOT
ATOM      1  C   UNL d   1      -0.392  -1.983  -0.014  0.00  0.00     0.020 A 
ATOM      2  C1  UNL d   1      -1.116  -1.261   0.935  0.00  0.00     0.020 A 
ATOM      3  C2  UNL d   1      -0.683   0.008   1.325  0.00  0.00     0.034 A 
ATOM      4  C3  UNL d   1       0.476   0.559   0.766  0.00  0.00     0.017 A 
ATOM      5  C4  UNL d   1       1.201  -0.166  -0.186  0.00  0.00     0.017 A 
ATOM      6  C5  UNL d   1       0.764  -1.436  -0.573  0.00  0.00     0.034 A 
ATOM      7 Cl   UNL d   1       2.641   0.448  -0.919  0.00  0.00    -0.070 Cl
ATOM      8 Cl1  UNL d   1       0.953   2.134   1.295  0.00  0.00    -0.070 Cl
ENDROOT
TORSDOF 0
ENDMDL
