MODEL 1
REMARK minimizedAffinity -2.75197411
REMARK minimizedRMSD -1
REMARK  0 active torsions:
REMARK  status: ('A' for Active; 'I' for Inactive)
ROOT
ATOM      1  C   UNL d   1      -0.499  -1.080  -0.335  0.00  0.00     0.020 A 
ATOM      2  C1  UNL d   1       0.032  -0.289  -1.353  0.00  0.00     0.020 A 
ATOM      3  C2  UNL d   1       0.637   0.931  -1.045  0.00  0.00     0.034 A 
ATOM      4  C3  UNL d   1       0.711   1.364   0.283  0.00  0.00     0.017 A 
ATOM      5  C4  UNL d   1       0.178   0.570   1.305  0.00  0.00     0.017 A 
ATOM      6  C5  UNL d   1      -0.426  -0.652   0.991  0.00  0.00     0.034 A 
ATOM      7 Cl   UNL d   1       0.232   1.037   2.968  0.00  0.00    -0.070 Cl
ATOM      8 Cl1  UNL d   1       1.473   2.884   0.591  0.00  0.00    -0.070 Cl
ENDROOT
TORSDOF 0
ENDMDL
