MODEL 1
REMARK minimizedAffinity -4.64141226
REMARK minimizedRMSD -1
REMARK  0 active torsions:
REMARK  status: ('A' for Active; 'I' for Inactive)
ROOT
ATOM      1  C   UNL d   1       2.690   1.470   0.310  0.00  0.00     0.020 A 
ATOM      2  C1  UNL d   1       2.190   2.097   1.451  0.00  0.00     0.020 A 
ATOM      3  C2  UNL d   1       0.927   1.755   1.940  0.00  0.00     0.034 A 
ATOM      4  C3  UNL d   1       0.160   0.783   1.287  0.00  0.00     0.017 A 
ATOM      5  C4  UNL d   1       0.662   0.154   0.142  0.00  0.00     0.017 A 
ATOM      6  C5  UNL d   1       1.927   0.500  -0.342  0.00  0.00     0.034 A 
ATOM      7 Cl   UNL d   1      -0.227  -1.054  -0.716  0.00  0.00    -0.070 Cl
ATOM      8 Cl1  UNL d   1      -1.393   0.409   1.947  0.00  0.00    -0.070 Cl
ENDROOT
TORSDOF 0
ENDMDL
