MODEL 1
REMARK minimizedAffinity 0.513286889
REMARK minimizedRMSD -1
REMARK  0 active torsions:
REMARK  status: ('A' for Active; 'I' for Inactive)
ROOT
ATOM      1  C   UNL d   1      -3.236  -1.346  -4.043  0.00  0.00     0.020 A 
ATOM      2  C1  UNL d   1      -1.955  -0.807  -4.146  0.00  0.00     0.020 A 
ATOM      3  C2  UNL d   1      -1.032  -0.998  -3.116  0.00  0.00     0.034 A 
ATOM      4  C3  UNL d   1      -1.389  -1.729  -1.978  0.00  0.00     0.017 A 
ATOM      5  C4  UNL d   1      -2.675  -2.270  -1.875  0.00  0.00     0.017 A 
ATOM      6  C5  UNL d   1      -3.596  -2.076  -2.909  0.00  0.00     0.034 A 
ATOM      7 Cl   UNL d   1      -3.189  -3.185  -0.501  0.00  0.00    -0.070 Cl
ATOM      8 Cl1  UNL d   1      -0.196  -1.926  -0.743  0.00  0.00    -0.070 Cl
ENDROOT
TORSDOF 0
ENDMDL
