MODEL 1
REMARK minimizedAffinity -5.23206329
REMARK minimizedRMSD -1
REMARK  0 active torsions:
REMARK  status: ('A' for Active; 'I' for Inactive)
ROOT
ATOM      1  C   UNL d   1      -0.727   1.594   1.531  0.00  0.00     0.020 A 
ATOM      2  C1  UNL d   1       0.285   2.552   1.564  0.00  0.00     0.020 A 
ATOM      3  C2  UNL d   1       1.528   2.274   0.991  0.00  0.00     0.034 A 
ATOM      4  C3  UNL d   1       1.762   1.035   0.384  0.00  0.00     0.017 A 
ATOM      5  C4  UNL d   1       0.745   0.074   0.351  0.00  0.00     0.017 A 
ATOM      6  C5  UNL d   1      -0.498   0.357   0.926  0.00  0.00     0.034 A 
ATOM      7 Cl   UNL d   1       0.959  -1.477  -0.381  0.00  0.00    -0.070 Cl
ATOM      8 Cl1  UNL d   1       3.323   0.760  -0.305  0.00  0.00    -0.070 Cl
ENDROOT
TORSDOF 0
ENDMDL
