MODEL 1
REMARK minimizedAffinity -3.01346707
REMARK minimizedRMSD -1
REMARK  0 active torsions:
REMARK  status: ('A' for Active; 'I' for Inactive)
ROOT
ATOM      1  C   UNL d   1       0.424   2.545   1.723  0.00  0.00     0.020 A 
ATOM      2  C1  UNL d   1       0.814   2.423   0.389  0.00  0.00     0.020 A 
ATOM      3  C2  UNL d   1       0.549   1.243  -0.310  0.00  0.00     0.034 A 
ATOM      4  C3  UNL d   1      -0.106   0.181   0.324  0.00  0.00     0.017 A 
ATOM      5  C4  UNL d   1      -0.496   0.305   1.663  0.00  0.00     0.017 A 
ATOM      6  C5  UNL d   1      -0.229   1.488   2.358  0.00  0.00     0.034 A 
ATOM      7 Cl   UNL d   1      -1.309  -0.962   2.512  0.00  0.00    -0.070 Cl
ATOM      8 Cl1  UNL d   1      -0.400  -1.248  -0.601  0.00  0.00    -0.070 Cl
ENDROOT
TORSDOF 0
ENDMDL
