MODEL 1
REMARK minimizedAffinity -3.30414033
REMARK minimizedRMSD -1
REMARK  0 active torsions:
REMARK  status: ('A' for Active; 'I' for Inactive)
ROOT
ATOM      1  C   UNL d   1       1.152   2.603   1.098  0.00  0.00     0.020 A 
ATOM      2  C1  UNL d   1       1.745   2.188  -0.094  0.00  0.00     0.020 A 
ATOM      3  C2  UNL d   1       1.314   1.016  -0.718  0.00  0.00     0.034 A 
ATOM      4  C3  UNL d   1       0.287   0.253  -0.150  0.00  0.00     0.017 A 
ATOM      5  C4  UNL d   1      -0.308   0.670   1.047  0.00  0.00     0.017 A 
ATOM      6  C5  UNL d   1       0.128   1.845   1.667  0.00  0.00     0.034 A 
ATOM      7 Cl   UNL d   1      -1.580  -0.219   1.808  0.00  0.00    -0.070 Cl
ATOM      8 Cl1  UNL d   1      -0.196  -1.186  -0.975  0.00  0.00    -0.070 Cl
ENDROOT
TORSDOF 0
ENDMDL
