MODEL 1
REMARK minimizedAffinity -4.17371607
REMARK minimizedRMSD -1
REMARK  0 active torsions:
REMARK  status: ('A' for Active; 'I' for Inactive)
ROOT
ATOM      1  C   UNL d   1       1.514   1.777  -0.026  0.00  0.00     0.020 A 
ATOM      2  C1  UNL d   1       1.167   2.414   1.165  0.00  0.00     0.020 A 
ATOM      3  C2  UNL d   1       0.038   2.001   1.875  0.00  0.00     0.034 A 
ATOM      4  C3  UNL d   1      -0.750   0.948   1.394  0.00  0.00     0.017 A 
ATOM      5  C4  UNL d   1      -0.401   0.309   0.199  0.00  0.00     0.017 A 
ATOM      6  C5  UNL d   1       0.731   0.726  -0.507  0.00  0.00     0.034 A 
ATOM      7 Cl   UNL d   1      -1.323  -0.998  -0.456  0.00  0.00    -0.070 Cl
ATOM      8 Cl1  UNL d   1      -2.132   0.490   2.324  0.00  0.00    -0.070 Cl
ENDROOT
TORSDOF 0
ENDMDL
