MODEL 1
REMARK minimizedAffinity -4.24788904
REMARK minimizedRMSD -1
REMARK  0 active torsions:
REMARK  status: ('A' for Active; 'I' for Inactive)
ROOT
ATOM      1  C   UNL d   1       2.261   1.668   0.107  0.00  0.00     0.020 A 
ATOM      2  C1  UNL d   1       1.830   2.386   1.222  0.00  0.00     0.020 A 
ATOM      3  C2  UNL d   1       0.639   2.035   1.861  0.00  0.00     0.034 A 
ATOM      4  C3  UNL d   1      -0.127   0.965   1.384  0.00  0.00     0.017 A 
ATOM      5  C4  UNL d   1       0.306   0.245   0.264  0.00  0.00     0.017 A 
ATOM      6  C5  UNL d   1       1.500   0.600  -0.371  0.00  0.00     0.034 A 
ATOM      7 Cl   UNL d   1      -0.585  -1.088  -0.382  0.00  0.00    -0.070 Cl
ATOM      8 Cl1  UNL d   1      -1.589   0.587   2.223  0.00  0.00    -0.070 Cl
ENDROOT
TORSDOF 0
ENDMDL
