MODEL 1
REMARK minimizedAffinity 9.56702137
REMARK minimizedRMSD -1
REMARK  1 active torsions:
REMARK  status: ('A' for Active; 'I' for Inactive)
REMARK    1  A    between atoms: N_2  and  C1_3 
ROOT
ATOM      1  C1  UNL d   1       0.550  -2.416   3.905  0.00  0.00     0.143 A 
ATOM      2  C2  UNL d   1       1.390  -2.739   2.835  0.00  0.00    -0.057 A 
ATOM      3  C3  UNL d   1       1.826  -1.761   1.932  0.00  0.00     0.033 A 
ATOM      4  C4  UNL d   1       1.404  -0.443   2.069  0.00  0.00    -0.042 A 
ATOM      5  C5  UNL d   1       0.548  -0.103   3.111  0.00  0.00     0.033 A 
ATOM      6  C6  UNL d   1       0.122  -1.083   4.012  0.00  0.00    -0.057 A 
ENDROOT
BRANCH   1   7
ATOM      7  N   UNL d   1       0.003  -3.360   4.778  0.00  0.00    -0.732 N 
ATOM      8  C   UNL d   1       0.694  -3.724   5.996  0.00  0.00     0.284 C 
ATOM      9  H3  UNL d   1      -1.002  -3.252   4.887  0.00  0.00     0.395 HD
ENDBRANCH   1   7
TORSDOF 1
ENDMDL
