MODEL 1
REMARK minimizedAffinity 7.89033794
REMARK minimizedRMSD -1
REMARK  1 active torsions:
REMARK  status: ('A' for Active; 'I' for Inactive)
REMARK    1  A    between atoms: N_2  and  C1_3 
ROOT
ATOM      1  C1  UNL d   1       0.744  -1.648  -0.748  0.00  0.00     0.143 A 
ATOM      2  C2  UNL d   1      -0.363  -1.093  -1.398  0.00  0.00    -0.057 A 
ATOM      3  C3  UNL d   1      -1.584  -1.775  -1.464  0.00  0.00     0.033 A 
ATOM      4  C4  UNL d   1      -1.711  -3.041  -0.904  0.00  0.00    -0.042 A 
ATOM      5  C5  UNL d   1      -0.617  -3.623  -0.274  0.00  0.00     0.033 A 
ATOM      6  C6  UNL d   1       0.598  -2.935  -0.205  0.00  0.00    -0.057 A 
ENDROOT
BRANCH   1   7
ATOM      7  N   UNL d   1       2.013  -1.063  -0.734  0.00  0.00    -0.732 N 
ATOM      8  C   UNL d   1       2.162   0.369  -0.588  0.00  0.00     0.284 C 
ATOM      9  H3  UNL d   1       2.686  -1.608  -0.199  0.00  0.00     0.395 HD
ENDBRANCH   1   7
TORSDOF 1
ENDMDL
