MODEL 1
REMARK minimizedAffinity 7.27283525
REMARK minimizedRMSD -1
REMARK  1 active torsions:
REMARK  status: ('A' for Active; 'I' for Inactive)
REMARK    1  A    between atoms: N_2  and  C1_3 
ROOT
ATOM      1  C1  UNL d   1      -3.601   0.368  -0.603  0.00  0.00     0.143 A 
ATOM      2  C2  UNL d   1      -2.308  -0.060  -0.283  0.00  0.00    -0.057 A 
ATOM      3  C3  UNL d   1      -1.303  -0.122  -1.256  0.00  0.00     0.033 A 
ATOM      4  C4  UNL d   1      -1.582   0.216  -2.576  0.00  0.00    -0.042 A 
ATOM      5  C5  UNL d   1      -2.866   0.620  -2.922  0.00  0.00     0.033 A 
ATOM      6  C6  UNL d   1      -3.864   0.687  -1.945  0.00  0.00    -0.057 A 
ENDROOT
BRANCH   1   7
ATOM      7  N   UNL d   1      -4.669   0.357   0.298  0.00  0.00    -0.732 N 
ATOM      8  C   UNL d   1      -5.997   0.743  -0.129  0.00  0.00     0.284 C 
ATOM      9  H3  UNL d   1      -4.648  -0.452   0.915  0.00  0.00     0.395 HD
ENDBRANCH   1   7
TORSDOF 1
ENDMDL
