MODEL 1
REMARK minimizedAffinity 10.3667784
REMARK minimizedRMSD -1
REMARK  1 active torsions:
REMARK  status: ('A' for Active; 'I' for Inactive)
REMARK    1  A    between atoms: N_2  and  C1_3 
ROOT
ATOM      1  C1  UNL d   1       3.461   1.766   1.000  0.00  0.00     0.143 A 
ATOM      2  C2  UNL d   1       3.696   2.394  -0.227  0.00  0.00    -0.057 A 
ATOM      3  C3  UNL d   1       3.435   1.743  -1.439  0.00  0.00     0.033 A 
ATOM      4  C4  UNL d   1       2.959   0.436  -1.444  0.00  0.00    -0.042 A 
ATOM      5  C5  UNL d   1       2.742  -0.218  -0.236  0.00  0.00     0.033 A 
ATOM      6  C6  UNL d   1       2.998   0.441   0.970  0.00  0.00    -0.057 A 
ENDROOT
BRANCH   1   7
ATOM      7  N   UNL d   1       3.793   2.324   2.237  0.00  0.00    -0.732 N 
ATOM      8  C   UNL d   1       2.819   2.382   3.305  0.00  0.00     0.284 C 
ATOM      9  H3  UNL d   1       4.729   2.065   2.541  0.00  0.00     0.395 HD
ENDBRANCH   1   7
TORSDOF 1
ENDMDL
