MODEL 1
REMARK minimizedAffinity 10.6026278
REMARK minimizedRMSD -1
REMARK  1 active torsions:
REMARK  status: ('A' for Active; 'I' for Inactive)
REMARK    1  A    between atoms: N_2  and  C1_3 
ROOT
ATOM      1  C1  UNL d   1       3.897  -1.053   0.252  0.00  0.00     0.143 A 
ATOM      2  C2  UNL d   1       3.510  -0.472  -0.960  0.00  0.00    -0.057 A 
ATOM      3  C3  UNL d   1       2.683  -1.153  -1.861  0.00  0.00     0.033 A 
ATOM      4  C4  UNL d   1       2.250  -2.445  -1.577  0.00  0.00    -0.042 A 
ATOM      5  C5  UNL d   1       2.643  -3.052  -0.389  0.00  0.00     0.033 A 
ATOM      6  C6  UNL d   1       3.464  -2.363   0.509  0.00  0.00    -0.057 A 
ENDROOT
BRANCH   1   7
ATOM      7  N   UNL d   1       4.798  -0.465   1.144  0.00  0.00    -0.732 N 
ATOM      8  C   UNL d   1       6.000  -1.164   1.545  0.00  0.00     0.284 C 
ATOM      9  H3  UNL d   1       4.935   0.526   0.961  0.00  0.00     0.395 HD
ENDBRANCH   1   7
TORSDOF 1
ENDMDL
