MODEL 1
REMARK minimizedAffinity 11.7592754
REMARK minimizedRMSD -1
REMARK  1 active torsions:
REMARK  status: ('A' for Active; 'I' for Inactive)
REMARK    1  A    between atoms: N_2  and  C1_3 
ROOT
ATOM      1  C1  UNL d   1       4.570   3.344   0.510  0.00  0.00     0.143 A 
ATOM      2  C2  UNL d   1       4.165   3.001  -0.784  0.00  0.00    -0.057 A 
ATOM      3  C3  UNL d   1       3.715   1.710  -1.086  0.00  0.00     0.033 A 
ATOM      4  C4  UNL d   1       3.689   0.728  -0.101  0.00  0.00    -0.042 A 
ATOM      5  C5  UNL d   1       4.111   1.039   1.187  0.00  0.00     0.033 A 
ATOM      6  C6  UNL d   1       4.553   2.332   1.483  0.00  0.00    -0.057 A 
ENDROOT
BRANCH   1   7
ATOM      7  N   UNL d   1       5.121   4.582   0.850  0.00  0.00    -0.732 N 
ATOM      8  C   UNL d   1       5.978   5.287  -0.078  0.00  0.00     0.284 C 
ATOM      9  H3  UNL d   1       4.460   5.179   1.342  0.00  0.00     0.395 HD
ENDBRANCH   1   7
TORSDOF 1
ENDMDL
