MODEL 1
REMARK minimizedAffinity 8.26530933
REMARK minimizedRMSD -1
REMARK  1 active torsions:
REMARK  status: ('A' for Active; 'I' for Inactive)
REMARK    1  A    between atoms: C3_4  and  O_7 
ROOT
ATOM      1  C   UNL d   1       0.676  -0.473   0.803  0.00  0.00    -0.033 A 
ATOM      2  C1  UNL d   1       1.096  -1.396  -0.156  0.00  0.00     0.039 A 
ATOM      3  C2  UNL d   1       0.192  -1.883  -1.102  0.00  0.00    -0.080 A 
ATOM      4  C3  UNL d   1      -1.127  -1.438  -1.079  0.00  0.00     0.150 A 
ATOM      5  C4  UNL d   1      -1.551  -0.515  -0.128  0.00  0.00    -0.007 A 
ATOM      6  C5  UNL d   1      -0.647  -0.031   0.816  0.00  0.00     0.039 A 
ENDROOT
BRANCH   4   7
ATOM      7  O   UNL d   1      -2.047  -1.888  -1.979  0.00  0.00    -0.526 OA
ATOM      8  H5  UNL d   1      -1.618  -2.542  -2.556  0.00  0.00     0.418 HD
ENDBRANCH   4   7
TORSDOF 1
ENDMDL
