MODEL 1
REMARK minimizedAffinity 4.38955688
REMARK minimizedRMSD -1
REMARK  1 active torsions:
REMARK  status: ('A' for Active; 'I' for Inactive)
REMARK    1  A    between atoms: C3_4  and  O_7 
ROOT
ATOM      1  C   UNL d   1       3.254  -2.486   3.997  0.00  0.00    -0.033 A 
ATOM      2  C1  UNL d   1       2.207  -1.882   4.695  0.00  0.00     0.039 A 
ATOM      3  C2  UNL d   1       1.543  -0.783   4.148  0.00  0.00    -0.080 A 
ATOM      4  C3  UNL d   1       1.934  -0.298   2.903  0.00  0.00     0.150 A 
ATOM      5  C4  UNL d   1       2.974  -0.898   2.200  0.00  0.00    -0.007 A 
ATOM      6  C5  UNL d   1       3.637  -1.995   2.748  0.00  0.00     0.039 A 
ENDROOT
BRANCH   4   7
ATOM      7  O   UNL d   1       1.319   0.775   2.331  0.00  0.00    -0.526 OA
ATOM      8  H5  UNL d   1       0.639   1.103   2.943  0.00  0.00     0.418 HD
ENDBRANCH   4   7
TORSDOF 1
ENDMDL
