MODEL 1
REMARK minimizedAffinity 5.04268646
REMARK minimizedRMSD -1
REMARK  1 active torsions:
REMARK  status: ('A' for Active; 'I' for Inactive)
REMARK    1  A    between atoms: C3_4  and  O_7 
ROOT
ATOM      1  C   UNL d   1       4.747  -4.308   3.567  0.00  0.00    -0.033 A 
ATOM      2  C1  UNL d   1       4.991  -2.940   3.429  0.00  0.00     0.039 A 
ATOM      3  C2  UNL d   1       3.949  -2.024   3.583  0.00  0.00    -0.080 A 
ATOM      4  C3  UNL d   1       2.669  -2.487   3.876  0.00  0.00     0.150 A 
ATOM      5  C4  UNL d   1       2.420  -3.848   4.019  0.00  0.00    -0.007 A 
ATOM      6  C5  UNL d   1       3.462  -4.762   3.864  0.00  0.00     0.039 A 
ENDROOT
BRANCH   4   7
ATOM      7  O   UNL d   1       1.619  -1.632   4.030  0.00  0.00    -0.526 OA
ATOM      8  H5  UNL d   1       1.935  -0.726   3.875  0.00  0.00     0.418 HD
ENDBRANCH   4   7
TORSDOF 1
ENDMDL
