MODEL 1
REMARK minimizedAffinity 2.55771089
REMARK minimizedRMSD -1
REMARK  1 active torsions:
REMARK  status: ('A' for Active; 'I' for Inactive)
REMARK    1  A    between atoms: C3_4  and  O_7 
ROOT
ATOM      1  C   UNL d   1       2.225  -2.364   2.830  0.00  0.00    -0.033 A 
ATOM      2  C1  UNL d   1       2.157  -1.063   2.325  0.00  0.00     0.039 A 
ATOM      3  C2  UNL d   1       2.029   0.020   3.197  0.00  0.00    -0.080 A 
ATOM      4  C3  UNL d   1       1.972  -0.211   4.569  0.00  0.00     0.150 A 
ATOM      5  C4  UNL d   1       2.043  -1.503   5.079  0.00  0.00    -0.007 A 
ATOM      6  C5  UNL d   1       2.170  -2.583   4.206  0.00  0.00     0.039 A 
ENDROOT
BRANCH   4   7
ATOM      7  O   UNL d   1       1.842   0.814   5.459  0.00  0.00    -0.526 OA
ATOM      8  H5  UNL d   1       1.776   1.647   4.962  0.00  0.00     0.418 HD
ENDBRANCH   4   7
TORSDOF 1
ENDMDL
