MODEL 1
REMARK minimizedAffinity -1.61500943
REMARK minimizedRMSD -1
REMARK  1 active torsions:
REMARK  status: ('A' for Active; 'I' for Inactive)
REMARK    1  A    between atoms: C3_4  and  O_7 
ROOT
ATOM      1  C   UNL d   1       5.252  -5.914  -4.879  0.00  0.00    -0.033 A 
ATOM      2  C1  UNL d   1       4.727  -5.911  -3.585  0.00  0.00     0.039 A 
ATOM      3  C2  UNL d   1       3.344  -5.941  -3.391  0.00  0.00    -0.080 A 
ATOM      4  C3  UNL d   1       2.499  -5.974  -4.496  0.00  0.00     0.150 A 
ATOM      5  C4  UNL d   1       3.016  -5.981  -5.788  0.00  0.00    -0.007 A 
ATOM      6  C5  UNL d   1       4.396  -5.951  -5.980  0.00  0.00     0.039 A 
ENDROOT
BRANCH   4   7
ATOM      7  O   UNL d   1       1.144  -5.999  -4.357  0.00  0.00    -0.526 OA
ATOM      8  H5  UNL d   1       0.931  -5.962  -3.409  0.00  0.00     0.418 HD
ENDBRANCH   4   7
TORSDOF 1
ENDMDL
