MODEL 1
REMARK minimizedAffinity 8.90629864
REMARK minimizedRMSD -1
REMARK  1 active torsions:
REMARK  status: ('A' for Active; 'I' for Inactive)
REMARK    1  A    between atoms: C3_4  and  O_7 
ROOT
ATOM      1  C   UNL d   1      -6.000   3.948   1.492  0.00  0.00    -0.033 A 
ATOM      2  C1  UNL d   1      -5.585   3.218   2.607  0.00  0.00     0.039 A 
ATOM      3  C2  UNL d   1      -4.310   2.648   2.635  0.00  0.00    -0.080 A 
ATOM      4  C3  UNL d   1      -3.462   2.816   1.544  0.00  0.00     0.150 A 
ATOM      5  C4  UNL d   1      -3.868   3.546   0.432  0.00  0.00    -0.007 A 
ATOM      6  C5  UNL d   1      -5.141   4.113   0.405  0.00  0.00     0.039 A 
ENDROOT
BRANCH   4   7
ATOM      7  O   UNL d   1      -2.211   2.275   1.524  0.00  0.00    -0.526 OA
ATOM      8  H5  UNL d   1      -2.079   1.775   2.347  0.00  0.00     0.418 HD
ENDBRANCH   4   7
TORSDOF 1
ENDMDL
