MODEL 1
REMARK minimizedAffinity -1.08900368
REMARK minimizedRMSD -1
REMARK  1 active torsions:
REMARK  status: ('A' for Active; 'I' for Inactive)
REMARK    1  A    between atoms: C3_4  and  O_7 
ROOT
ATOM      1  C   UNL d   1       2.303  -0.858   4.344  0.00  0.00    -0.033 A 
ATOM      2  C1  UNL d   1       3.345  -1.709   3.973  0.00  0.00     0.039 A 
ATOM      3  C2  UNL d   1       4.016  -1.509   2.765  0.00  0.00    -0.080 A 
ATOM      4  C3  UNL d   1       3.635  -0.455   1.938  0.00  0.00     0.150 A 
ATOM      5  C4  UNL d   1       2.600   0.399   2.303  0.00  0.00    -0.007 A 
ATOM      6  C5  UNL d   1       1.931   0.197   3.510  0.00  0.00     0.039 A 
ENDROOT
BRANCH   4   7
ATOM      7  O   UNL d   1       4.257  -0.223   0.747  0.00  0.00    -0.526 OA
ATOM      8  H5  UNL d   1       4.932  -0.910   0.614  0.00  0.00     0.418 HD
ENDBRANCH   4   7
TORSDOF 1
ENDMDL
