MODEL 1
REMARK minimizedAffinity 6.93023968
REMARK minimizedRMSD -1
REMARK  1 active torsions:
REMARK  status: ('A' for Active; 'I' for Inactive)
REMARK    1  A    between atoms: C1_2  and  C2_3 
ROOT
ATOM      1  C2  UNL d   1      -3.128  -3.268  -5.698  0.00  0.00    -0.077 A 
ATOM      2  C3  UNL d   1      -2.151  -4.213  -5.354  0.00  0.00     0.002 A 
ATOM      3  C4  UNL d   1      -2.469  -5.571  -5.305  0.00  0.00     0.002 A 
ATOM      4  C5  UNL d   1      -3.761  -5.998  -5.604  0.00  0.00    -0.004 A 
ATOM      5  C6  UNL d   1      -4.740  -5.066  -5.945  0.00  0.00     0.002 A 
ATOM      6  C7  UNL d   1      -4.425  -3.707  -5.993  0.00  0.00     0.002 A 
ENDROOT
BRANCH   1   7
ATOM      7  C1  UNL d   1      -2.775  -1.807  -5.799  0.00  0.00     0.055 C 
ATOM      8  C   UNL d   1      -1.269  -1.596  -5.744  0.00  0.00     0.019 C 
ENDBRANCH   1   7
TORSDOF 1
ENDMDL
