MODEL 1
REMARK minimizedAffinity 10.604455
REMARK minimizedRMSD -1
REMARK  1 active torsions:
REMARK  status: ('A' for Active; 'I' for Inactive)
REMARK    1  A    between atoms: C1_2  and  C2_3 
ROOT
ATOM      1  C2  UNL d   1      -5.374   2.117  -2.519  0.00  0.00    -0.077 A 
ATOM      2  C3  UNL d   1      -4.658   1.980  -3.716  0.00  0.00     0.002 A 
ATOM      3  C4  UNL d   1      -4.540   3.058  -4.596  0.00  0.00     0.002 A 
ATOM      4  C5  UNL d   1      -5.131   4.281  -4.285  0.00  0.00    -0.004 A 
ATOM      5  C6  UNL d   1      -5.847   4.427  -3.097  0.00  0.00     0.002 A 
ATOM      6  C7  UNL d   1      -5.967   3.350  -2.218  0.00  0.00     0.002 A 
ENDROOT
BRANCH   1   7
ATOM      7  C1  UNL d   1      -5.461   0.970  -1.546  0.00  0.00     0.055 C 
ATOM      8  C   UNL d   1      -4.168   0.813  -0.759  0.00  0.00     0.019 C 
ENDBRANCH   1   7
TORSDOF 1
ENDMDL
