MODEL 1
REMARK minimizedAffinity 5.51367998
REMARK minimizedRMSD -1
REMARK  1 active torsions:
REMARK  status: ('A' for Active; 'I' for Inactive)
REMARK    1  A    between atoms: C1_2  and  C2_3 
ROOT
ATOM      1  C2  UNL d   1      -1.753   1.875  -0.780  0.00  0.00    -0.077 A 
ATOM      2  C3  UNL d   1      -2.346   0.617  -0.600  0.00  0.00     0.002 A 
ATOM      3  C4  UNL d   1      -2.024  -0.443  -1.449  0.00  0.00     0.002 A 
ATOM      4  C5  UNL d   1      -1.107  -0.258  -2.481  0.00  0.00    -0.004 A 
ATOM      5  C6  UNL d   1      -0.514   0.990  -2.670  0.00  0.00     0.002 A 
ATOM      6  C7  UNL d   1      -0.835   2.051  -1.823  0.00  0.00     0.002 A 
ENDROOT
BRANCH   1   7
ATOM      7  C1  UNL d   1      -2.061   3.007   0.166  0.00  0.00     0.055 C 
ATOM      8  C   UNL d   1      -1.776   2.616   1.608  0.00  0.00     0.019 C 
ENDBRANCH   1   7
TORSDOF 1
ENDMDL
