MODEL 1
REMARK minimizedAffinity 2.98573995
REMARK minimizedRMSD -1
REMARK  1 active torsions:
REMARK  status: ('A' for Active; 'I' for Inactive)
REMARK    1  A    between atoms: C1_2  and  C2_3 
ROOT
ATOM      1  C2  UNL d   1      -0.264   2.638   0.622  0.00  0.00    -0.077 A 
ATOM      2  C3  UNL d   1      -0.587   3.978   0.366  0.00  0.00     0.002 A 
ATOM      3  C4  UNL d   1      -0.915   4.390  -0.928  0.00  0.00     0.002 A 
ATOM      4  C5  UNL d   1      -0.926   3.469  -1.973  0.00  0.00    -0.004 A 
ATOM      5  C6  UNL d   1      -0.604   2.134  -1.728  0.00  0.00     0.002 A 
ATOM      6  C7  UNL d   1      -0.276   1.720  -0.437  0.00  0.00     0.002 A 
ENDROOT
BRANCH   1   7
ATOM      7  C1  UNL d   1       0.042   2.181   2.025  0.00  0.00     0.055 C 
ATOM      8  C   UNL d   1      -1.167   1.513   2.665  0.00  0.00     0.019 C 
ENDBRANCH   1   7
TORSDOF 1
ENDMDL
