MODEL 1
REMARK minimizedAffinity 10.29389
REMARK minimizedRMSD -1
REMARK  1 active torsions:
REMARK  status: ('A' for Active; 'I' for Inactive)
REMARK    1  A    between atoms: C1_2  and  C2_3 
ROOT
ATOM      1  C2  UNL d   1      -2.370   0.374  -1.709  0.00  0.00    -0.077 A 
ATOM      2  C3  UNL d   1      -2.416   1.625  -2.340  0.00  0.00     0.002 A 
ATOM      3  C4  UNL d   1      -1.236   2.275  -2.707  0.00  0.00     0.002 A 
ATOM      4  C5  UNL d   1      -0.003   1.681  -2.450  0.00  0.00    -0.004 A 
ATOM      5  C6  UNL d   1       0.054   0.438  -1.821  0.00  0.00     0.002 A 
ATOM      6  C7  UNL d   1      -1.124  -0.213  -1.453  0.00  0.00     0.002 A 
ENDROOT
BRANCH   1   7
ATOM      7  C1  UNL d   1      -3.642  -0.352  -1.357  0.00  0.00     0.055 C 
ATOM      8  C   UNL d   1      -3.478  -1.175  -0.088  0.00  0.00     0.019 C 
ENDBRANCH   1   7
TORSDOF 1
ENDMDL
