MODEL 1
REMARK minimizedAffinity 8.09076405
REMARK minimizedRMSD -1
REMARK  1 active torsions:
REMARK  status: ('A' for Active; 'I' for Inactive)
REMARK    1  A    between atoms: C1_2  and  C2_3 
ROOT
ATOM      1  C2  UNL d   1      -0.291   1.658  -1.419  0.00  0.00    -0.077 A 
ATOM      2  C3  UNL d   1      -0.168   1.823  -2.806  0.00  0.00     0.002 A 
ATOM      3  C4  UNL d   1      -0.825   0.957  -3.682  0.00  0.00     0.002 A 
ATOM      4  C5  UNL d   1      -1.614  -0.077  -3.181  0.00  0.00    -0.004 A 
ATOM      5  C6  UNL d   1      -1.742  -0.250  -1.803  0.00  0.00     0.002 A 
ATOM      6  C7  UNL d   1      -1.084   0.614  -0.926  0.00  0.00     0.002 A 
ENDROOT
BRANCH   1   7
ATOM      7  C1  UNL d   1       0.378   2.621  -0.473  0.00  0.00     0.055 C 
ATOM      8  C   UNL d   1       0.048   2.292   0.976  0.00  0.00     0.019 C 
ENDBRANCH   1   7
TORSDOF 1
ENDMDL
