MODEL 1
REMARK minimizedAffinity 3.43408704
REMARK minimizedRMSD -1
REMARK  1 active torsions:
REMARK  status: ('A' for Active; 'I' for Inactive)
REMARK    1  A    between atoms: C1_2  and  C2_3 
ROOT
ATOM      1  C2  UNL d   1       2.733  -1.251  -0.746  0.00  0.00    -0.077 A 
ATOM      2  C3  UNL d   1       3.935  -0.802  -1.310  0.00  0.00     0.002 A 
ATOM      3  C4  UNL d   1       4.857  -1.714  -1.827  0.00  0.00     0.002 A 
ATOM      4  C5  UNL d   1       4.583  -3.080  -1.789  0.00  0.00    -0.004 A 
ATOM      5  C6  UNL d   1       3.391  -3.537  -1.229  0.00  0.00     0.002 A 
ATOM      6  C7  UNL d   1       2.470  -2.626  -0.710  0.00  0.00     0.002 A 
ENDROOT
BRANCH   1   7
ATOM      7  C1  UNL d   1       1.716  -0.265  -0.232  0.00  0.00     0.055 C 
ATOM      8  C   UNL d   1       0.527  -0.153  -1.176  0.00  0.00     0.019 C 
ENDBRANCH   1   7
TORSDOF 1
ENDMDL
