MODEL 1
REMARK minimizedAffinity 5.81714964
REMARK minimizedRMSD -1
REMARK  1 active torsions:
REMARK  status: ('A' for Active; 'I' for Inactive)
REMARK    1  A    between atoms: C1_2  and  C2_3 
ROOT
ATOM      1  C2  UNL d   1      -0.070   0.752   3.418  0.00  0.00    -0.077 A 
ATOM      2  C3  UNL d   1       1.079   0.814   2.617  0.00  0.00     0.002 A 
ATOM      3  C4  UNL d   1       1.169   1.748   1.583  0.00  0.00     0.002 A 
ATOM      4  C5  UNL d   1       0.117   2.630   1.345  0.00  0.00    -0.004 A 
ATOM      5  C6  UNL d   1      -1.030   2.575   2.135  0.00  0.00     0.002 A 
ATOM      6  C7  UNL d   1      -1.123   1.641   3.168  0.00  0.00     0.002 A 
ENDROOT
BRANCH   1   7
ATOM      7  C1  UNL d   1      -0.149  -0.222   4.565  0.00  0.00     0.055 C 
ATOM      8  C   UNL d   1       0.791  -1.400   4.356  0.00  0.00     0.019 C 
ENDBRANCH   1   7
TORSDOF 1
ENDMDL
