MODEL 1
REMARK minimizedAffinity 3.21693802
REMARK minimizedRMSD -1
REMARK  0 active torsions:
REMARK  status: ('A' for Active; 'I' for Inactive)
ROOT
ATOM      1  C   UNL d   1       2.195  -0.607   2.432  0.00  0.00     0.078 C 
ATOM      2  C1  UNL d   1       2.515  -1.926   3.070  0.00  0.00    -0.077 A 
ATOM      3  C2  UNL d   1       3.613  -2.065   3.927  0.00  0.00    -0.001 A 
ATOM      4  C3  UNL d   1       3.905  -3.302   4.506  0.00  0.00     0.003 A 
ATOM      5  C4  UNL d   1       3.104  -4.409   4.233  0.00  0.00    -0.005 A 
ATOM      6  C5  UNL d   1       2.010  -4.280   3.379  0.00  0.00     0.003 A 
ATOM      7  C6  UNL d   1       1.717  -3.045   2.800  0.00  0.00    -0.001 A 
ENDROOT
TORSDOF 0
ENDMDL
