MODEL 1
REMARK minimizedAffinity 2.90043259
REMARK minimizedRMSD -1
REMARK  0 active torsions:
REMARK  status: ('A' for Active; 'I' for Inactive)
ROOT
ATOM      1  C   UNL d   1       5.335  -3.017   4.214  0.00  0.00     0.078 C 
ATOM      2  C1  UNL d   1       3.864  -2.973   3.927  0.00  0.00    -0.077 A 
ATOM      3  C2  UNL d   1       3.371  -2.330   2.785  0.00  0.00    -0.001 A 
ATOM      4  C3  UNL d   1       1.999  -2.288   2.536  0.00  0.00     0.003 A 
ATOM      5  C4  UNL d   1       1.107  -2.885   3.425  0.00  0.00    -0.005 A 
ATOM      6  C5  UNL d   1       1.588  -3.524   4.566  0.00  0.00     0.003 A 
ATOM      7  C6  UNL d   1       2.961  -3.568   4.817  0.00  0.00    -0.001 A 
ENDROOT
TORSDOF 0
ENDMDL
