MODEL 1
REMARK minimizedAffinity 4.62106895
REMARK minimizedRMSD -1
REMARK  0 active torsions:
REMARK  status: ('A' for Active; 'I' for Inactive)
ROOT
ATOM      1  C   UNL d   1      -3.093  -1.332  -3.437  0.00  0.00     0.078 C 
ATOM      2  C1  UNL d   1      -2.879  -0.066  -2.663  0.00  0.00    -0.077 A 
ATOM      3  C2  UNL d   1      -2.299  -0.090  -1.388  0.00  0.00    -0.001 A 
ATOM      4  C3  UNL d   1      -2.115   1.096  -0.675  0.00  0.00     0.003 A 
ATOM      5  C4  UNL d   1      -2.509   2.313  -1.227  0.00  0.00    -0.005 A 
ATOM      6  C5  UNL d   1      -3.089   2.346  -2.493  0.00  0.00     0.003 A 
ATOM      7  C6  UNL d   1      -3.274   1.162  -3.208  0.00  0.00    -0.001 A 
ENDROOT
TORSDOF 0
ENDMDL
