MODEL 1
REMARK minimizedAffinity 6.60406637
REMARK minimizedRMSD -1
REMARK  0 active torsions:
REMARK  status: ('A' for Active; 'I' for Inactive)
ROOT
ATOM      1  C   UNL d   1      -5.634   4.132  -0.477  0.00  0.00     0.078 C 
ATOM      2  C1  UNL d   1      -5.246   3.661  -1.846  0.00  0.00    -0.077 A 
ATOM      3  C2  UNL d   1      -4.129   2.839  -2.037  0.00  0.00    -0.001 A 
ATOM      4  C3  UNL d   1      -3.774   2.416  -3.319  0.00  0.00     0.003 A 
ATOM      5  C4  UNL d   1      -4.530   2.810  -4.420  0.00  0.00    -0.005 A 
ATOM      6  C5  UNL d   1      -5.643   3.630  -4.241  0.00  0.00     0.003 A 
ATOM      7  C6  UNL d   1      -5.999   4.054  -2.960  0.00  0.00    -0.001 A 
ENDROOT
TORSDOF 0
ENDMDL
