MODEL 1
REMARK minimizedAffinity 7.33291054
REMARK minimizedRMSD -1
REMARK  0 active torsions:
REMARK  status: ('A' for Active; 'I' for Inactive)
ROOT
ATOM      1  C   UNL d   1      -2.080  -0.994  -5.314  0.00  0.00     0.020 A 
ATOM      2  C1  UNL d   1      -1.477  -2.156  -5.793  0.00  0.00     0.020 A 
ATOM      3  C2  UNL d   1      -2.241  -3.307  -5.998  0.00  0.00     0.034 A 
ATOM      4  C3  UNL d   1      -3.614  -3.298  -5.723  0.00  0.00     0.017 A 
ATOM      5  C4  UNL d   1      -4.219  -2.131  -5.243  0.00  0.00     0.017 A 
ATOM      6  C5  UNL d   1      -3.448  -0.982  -5.040  0.00  0.00     0.034 A 
ATOM      7 Cl   UNL d   1      -5.906  -2.043  -4.881  0.00  0.00    -0.070 Cl
ATOM      8 Cl1  UNL d   1      -4.498  -4.756  -6.000  0.00  0.00    -0.070 Cl
ENDROOT
TORSDOF 0
ENDMDL
