MODEL 1
REMARK minimizedAffinity 1.82308364
REMARK minimizedRMSD -1
REMARK  0 active torsions:
REMARK  status: ('A' for Active; 'I' for Inactive)
ROOT
ATOM      1  C   UNL d   1      -3.644   0.471   1.571  0.00  0.00     0.020 A 
ATOM      2  C1  UNL d   1      -3.818   1.803   1.195  0.00  0.00     0.020 A 
ATOM      3  C2  UNL d   1      -4.434   2.700   2.070  0.00  0.00     0.034 A 
ATOM      4  C3  UNL d   1      -4.878   2.267   3.325  0.00  0.00     0.017 A 
ATOM      5  C4  UNL d   1      -4.703   0.931   3.701  0.00  0.00     0.017 A 
ATOM      6  C5  UNL d   1      -4.085   0.037   2.821  0.00  0.00     0.034 A 
ATOM      7 Cl   UNL d   1      -5.224   0.323   5.233  0.00  0.00    -0.070 Cl
ATOM      8 Cl1  UNL d   1      -5.631   3.432   4.356  0.00  0.00    -0.070 Cl
ENDROOT
TORSDOF 0
ENDMDL
