MODEL 1
REMARK minimizedAffinity 4.77538013
REMARK minimizedRMSD -1
REMARK  0 active torsions:
REMARK  status: ('A' for Active; 'I' for Inactive)
ROOT
ATOM      1  C   UNL d   1      -1.960  -0.725  -5.987  0.00  0.00     0.020 A 
ATOM      2  C1  UNL d   1      -1.502  -2.042  -5.992  0.00  0.00     0.020 A 
ATOM      3  C2  UNL d   1      -2.415  -3.098  -5.996  0.00  0.00     0.034 A 
ATOM      4  C3  UNL d   1      -3.790  -2.840  -5.994  0.00  0.00     0.017 A 
ATOM      5  C4  UNL d   1      -4.249  -1.518  -5.990  0.00  0.00     0.017 A 
ATOM      6  C5  UNL d   1      -3.330  -0.464  -5.986  0.00  0.00     0.034 A 
ATOM      7 Cl   UNL d   1      -5.931  -1.120  -5.988  0.00  0.00    -0.070 Cl
ATOM      8 Cl1  UNL d   1      -4.862  -4.195  -6.000  0.00  0.00    -0.070 Cl
ENDROOT
TORSDOF 0
ENDMDL
