MODEL 1
REMARK minimizedAffinity 1.25507319
REMARK minimizedRMSD -1
REMARK  0 active torsions:
REMARK  status: ('A' for Active; 'I' for Inactive)
ROOT
ATOM      1  C   UNL d   1      -2.140  -0.603  -6.000  0.00  0.00     0.020 A 
ATOM      2  C1  UNL d   1      -1.478  -1.831  -5.999  0.00  0.00     0.020 A 
ATOM      3  C2  UNL d   1      -2.212  -3.019  -5.999  0.00  0.00     0.034 A 
ATOM      4  C3  UNL d   1      -3.611  -2.983  -5.999  0.00  0.00     0.017 A 
ATOM      5  C4  UNL d   1      -4.274  -1.750  -5.999  0.00  0.00     0.017 A 
ATOM      6  C5  UNL d   1      -3.534  -0.563  -6.000  0.00  0.00     0.034 A 
ATOM      7 Cl   UNL d   1      -5.998  -1.624  -6.000  0.00  0.00    -0.070 Cl
ATOM      8 Cl1  UNL d   1      -4.454  -4.491  -5.998  0.00  0.00    -0.070 Cl
ENDROOT
TORSDOF 0
ENDMDL
