MODEL 1
REMARK minimizedAffinity 1.85788965
REMARK minimizedRMSD -1
REMARK  0 active torsions:
REMARK  status: ('A' for Active; 'I' for Inactive)
ROOT
ATOM      1  C   UNL d   1      -2.240  -0.514  -5.975  0.00  0.00     0.020 A 
ATOM      2  C1  UNL d   1      -1.479  -1.682  -5.988  0.00  0.00     0.020 A 
ATOM      3  C2  UNL d   1      -2.111  -2.927  -5.996  0.00  0.00     0.034 A 
ATOM      4  C3  UNL d   1      -3.509  -3.007  -5.990  0.00  0.00     0.017 A 
ATOM      5  C4  UNL d   1      -4.272  -1.834  -5.977  0.00  0.00     0.017 A 
ATOM      6  C5  UNL d   1      -3.633  -0.589  -5.969  0.00  0.00     0.034 A 
ATOM      7 Cl   UNL d   1      -6.000  -1.852  -5.969  0.00  0.00    -0.070 Cl
ATOM      8 Cl1  UNL d   1      -4.223  -4.580  -6.000  0.00  0.00    -0.070 Cl
ENDROOT
TORSDOF 0
ENDMDL
