MODEL 1
REMARK minimizedAffinity 14.8914738
REMARK minimizedRMSD -1
REMARK  0 active torsions:
REMARK  status: ('A' for Active; 'I' for Inactive)
ROOT
ATOM      1  C   UNL d   1      -0.342  -1.977  -5.977  0.00  0.00     0.020 A 
ATOM      2  C1  UNL d   1      -0.751  -0.644  -5.950  0.00  0.00     0.020 A 
ATOM      3  C2  UNL d   1      -2.112  -0.331  -5.938  0.00  0.00     0.034 A 
ATOM      4  C3  UNL d   1      -3.069  -1.352  -5.953  0.00  0.00     0.017 A 
ATOM      5  C4  UNL d   1      -2.658  -2.690  -5.980  0.00  0.00     0.017 A 
ATOM      6  C5  UNL d   1      -1.294  -2.997  -5.992  0.00  0.00     0.034 A 
ATOM      7 Cl   UNL d   1      -3.780  -4.004  -6.000  0.00  0.00    -0.070 Cl
ATOM      8 Cl1  UNL d   1      -4.734  -0.892  -5.937  0.00  0.00    -0.070 Cl
ENDROOT
TORSDOF 0
ENDMDL
