MODEL 1
REMARK minimizedAffinity -0.267741799
REMARK minimizedRMSD -1
REMARK  0 active torsions:
REMARK  status: ('A' for Active; 'I' for Inactive)
ROOT
ATOM      1  C   UNL d   1      -5.472  -3.611  -5.996  0.00  0.00     0.020 A 
ATOM      2  C1  UNL d   1      -5.976  -2.311  -5.992  0.00  0.00     0.020 A 
ATOM      3  C2  UNL d   1      -5.102  -1.222  -5.990  0.00  0.00     0.034 A 
ATOM      4  C3  UNL d   1      -3.718  -1.431  -5.993  0.00  0.00     0.017 A 
ATOM      5  C4  UNL d   1      -3.212  -2.736  -5.997  0.00  0.00     0.017 A 
ATOM      6  C5  UNL d   1      -4.092  -3.823  -5.999  0.00  0.00     0.034 A 
ATOM      7 Cl   UNL d   1      -1.517  -3.073  -6.000  0.00  0.00    -0.070 Cl
ATOM      8 Cl1  UNL d   1      -2.695  -0.038  -5.990  0.00  0.00    -0.070 Cl
ENDROOT
TORSDOF 0
ENDMDL
