MODEL 1
REMARK minimizedAffinity 4.76414585
REMARK minimizedRMSD -1
REMARK  0 active torsions:
REMARK  status: ('A' for Active; 'I' for Inactive)
ROOT
ATOM      1  C   UNL d   1      -3.624  -0.379  -5.639  0.00  0.00     0.020 A 
ATOM      2  C1  UNL d   1      -2.254  -0.117  -5.639  0.00  0.00     0.020 A 
ATOM      3  C2  UNL d   1      -1.343  -1.170  -5.752  0.00  0.00     0.034 A 
ATOM      4  C3  UNL d   1      -1.800  -2.488  -5.864  0.00  0.00     0.017 A 
ATOM      5  C4  UNL d   1      -3.175  -2.749  -5.864  0.00  0.00     0.017 A 
ATOM      6  C5  UNL d   1      -4.083  -1.692  -5.752  0.00  0.00     0.034 A 
ATOM      7 Cl   UNL d   1      -3.814  -4.349  -5.999  0.00  0.00    -0.070 Cl
ATOM      8 Cl1  UNL d   1      -0.616  -3.739  -6.000  0.00  0.00    -0.070 Cl
ENDROOT
TORSDOF 0
ENDMDL
