MODEL 1
REMARK minimizedAffinity 2.59866667
REMARK minimizedRMSD -1
REMARK  0 active torsions:
REMARK  status: ('A' for Active; 'I' for Inactive)
ROOT
ATOM      1  C   UNL d   1      -4.814  -0.380   5.441  0.00  0.00     0.020 A 
ATOM      2  C1  UNL d   1      -5.467   0.802   5.787  0.00  0.00     0.020 A 
ATOM      3  C2  UNL d   1      -5.590   1.831   4.851  0.00  0.00     0.034 A 
ATOM      4  C3  UNL d   1      -5.059   1.680   3.565  0.00  0.00     0.017 A 
ATOM      5  C4  UNL d   1      -4.404   0.493   3.219  0.00  0.00     0.017 A 
ATOM      6  C5  UNL d   1      -4.284  -0.535   4.160  0.00  0.00     0.034 A 
ATOM      7 Cl   UNL d   1      -3.724   0.233   1.651  0.00  0.00    -0.070 Cl
ATOM      8 Cl1  UNL d   1      -5.248   2.994   2.459  0.00  0.00    -0.070 Cl
ENDROOT
TORSDOF 0
ENDMDL
