MODEL 1
REMARK minimizedAffinity 3.68814731
REMARK minimizedRMSD -1
REMARK  0 active torsions:
REMARK  status: ('A' for Active; 'I' for Inactive)
ROOT
ATOM      1  C   UNL d   1      -3.337   1.487   2.192  0.00  0.00     0.020 A 
ATOM      2  C1  UNL d   1      -4.134   2.630   2.247  0.00  0.00     0.020 A 
ATOM      3  C2  UNL d   1      -4.949   2.859   3.358  0.00  0.00     0.034 A 
ATOM      4  C3  UNL d   1      -4.968   1.945   4.417  0.00  0.00     0.017 A 
ATOM      5  C4  UNL d   1      -4.167   0.798   4.361  0.00  0.00     0.017 A 
ATOM      6  C5  UNL d   1      -3.353   0.574   3.246  0.00  0.00     0.034 A 
ATOM      7 Cl   UNL d   1      -4.137  -0.375   5.630  0.00  0.00    -0.070 Cl
ATOM      8 Cl1  UNL d   1      -6.000   2.292   5.760  0.00  0.00    -0.070 Cl
ENDROOT
TORSDOF 0
ENDMDL
