MODEL 1
REMARK minimizedAffinity 7.42894411
REMARK minimizedRMSD -1
REMARK  0 active torsions:
REMARK  status: ('A' for Active; 'I' for Inactive)
ROOT
ATOM      1  C   UNL d   1       5.998  -5.745   5.535  0.00  0.00     0.020 A 
ATOM      2  C1  UNL d   1       5.997  -6.000   4.164  0.00  0.00     0.020 A 
ATOM      3  C2  UNL d   1       5.930  -4.941   3.257  0.00  0.00     0.034 A 
ATOM      4  C3  UNL d   1       5.863  -3.621   3.719  0.00  0.00     0.017 A 
ATOM      5  C4  UNL d   1       5.864  -3.366   5.095  0.00  0.00     0.017 A 
ATOM      6  C5  UNL d   1       5.931  -4.430   5.999  0.00  0.00     0.034 A 
ATOM      7 Cl   UNL d   1       5.784  -1.765   5.741  0.00  0.00    -0.070 Cl
ATOM      8 Cl1  UNL d   1       5.783  -2.360   2.540  0.00  0.00    -0.070 Cl
ENDROOT
TORSDOF 0
ENDMDL
