MODEL 1
REMARK minimizedAffinity 1.64438617
REMARK minimizedRMSD -1
REMARK  0 active torsions:
REMARK  status: ('A' for Active; 'I' for Inactive)
ROOT
ATOM      1  C   UNL d   1      -1.912  -0.864  -5.996  0.00  0.00     0.020 A 
ATOM      2  C1  UNL d   1      -1.458  -2.182  -5.997  0.00  0.00     0.020 A 
ATOM      3  C2  UNL d   1      -2.374  -3.236  -5.997  0.00  0.00     0.034 A 
ATOM      4  C3  UNL d   1      -3.749  -2.974  -5.996  0.00  0.00     0.017 A 
ATOM      5  C4  UNL d   1      -4.204  -1.650  -5.995  0.00  0.00     0.017 A 
ATOM      6  C5  UNL d   1      -3.282  -0.598  -5.995  0.00  0.00     0.034 A 
ATOM      7 Cl   UNL d   1      -5.885  -1.248  -5.994  0.00  0.00    -0.070 Cl
ATOM      8 Cl1  UNL d   1      -4.825  -4.326  -5.997  0.00  0.00    -0.070 Cl
ENDROOT
TORSDOF 0
ENDMDL
