MODEL 1
REMARK minimizedAffinity 11.5167408
REMARK minimizedRMSD -1
REMARK  0 active torsions:
REMARK  status: ('A' for Active; 'I' for Inactive)
ROOT
ATOM      1  C   UNL d   1       5.759  -1.386   5.996  0.00  0.00     0.020 A 
ATOM      2  C1  UNL d   1       5.999  -2.760   5.999  0.00  0.00     0.020 A 
ATOM      3  C2  UNL d   1       5.930  -3.483   4.806  0.00  0.00     0.034 A 
ATOM      4  C3  UNL d   1       5.621  -2.834   3.606  0.00  0.00     0.017 A 
ATOM      5  C4  UNL d   1       5.381  -1.455   3.603  0.00  0.00     0.017 A 
ATOM      6  C5  UNL d   1       5.451  -0.735   4.800  0.00  0.00     0.034 A 
ATOM      7 Cl   UNL d   1       4.994  -0.584   2.162  0.00  0.00    -0.070 Cl
ATOM      8 Cl1  UNL d   1       5.554  -3.791   2.169  0.00  0.00    -0.070 Cl
ENDROOT
TORSDOF 0
ENDMDL
