MODEL 1
REMARK minimizedAffinity 5.75342703
REMARK minimizedRMSD -1
REMARK  0 active torsions:
REMARK  status: ('A' for Active; 'I' for Inactive)
ROOT
ATOM      1  C   UNL d   1      -1.009  -1.180  -5.468  0.00  0.00     0.020 A 
ATOM      2  C1  UNL d   1      -1.885  -0.173  -5.066  0.00  0.00     0.020 A 
ATOM      3  C2  UNL d   1      -3.251  -0.442  -4.947  0.00  0.00     0.034 A 
ATOM      4  C3  UNL d   1      -3.743  -1.721  -5.230  0.00  0.00     0.017 A 
ATOM      5  C4  UNL d   1      -2.862  -2.731  -5.633  0.00  0.00     0.017 A 
ATOM      6  C5  UNL d   1      -1.497  -2.457  -5.751  0.00  0.00     0.034 A 
ATOM      7 Cl   UNL d   1      -3.396  -4.334  -6.000  0.00  0.00    -0.070 Cl
ATOM      8 Cl1  UNL d   1      -5.443  -1.983  -5.062  0.00  0.00    -0.070 Cl
ENDROOT
TORSDOF 0
ENDMDL
