MODEL 1
REMARK minimizedAffinity 0.0746101439
REMARK minimizedRMSD -1
REMARK  0 active torsions:
REMARK  status: ('A' for Active; 'I' for Inactive)
ROOT
ATOM      1  C   UNL d   1      -1.362  -0.927  -5.992  0.00  0.00     0.020 A 
ATOM      2  C1  UNL d   1      -2.303   0.102  -5.991  0.00  0.00     0.020 A 
ATOM      3  C2  UNL d   1      -3.666  -0.198  -5.993  0.00  0.00     0.034 A 
ATOM      4  C3  UNL d   1      -4.093  -1.531  -5.996  0.00  0.00     0.017 A 
ATOM      5  C4  UNL d   1      -3.148  -2.564  -5.996  0.00  0.00     0.017 A 
ATOM      6  C5  UNL d   1      -1.784  -2.257  -5.994  0.00  0.00     0.034 A 
ATOM      7 Cl   UNL d   1      -3.598  -4.232  -5.999  0.00  0.00    -0.070 Cl
ATOM      8 Cl1  UNL d   1      -5.795  -1.830  -5.998  0.00  0.00    -0.070 Cl
ENDROOT
TORSDOF 0
ENDMDL
