MODEL 1
REMARK minimizedAffinity 1.59730875
REMARK minimizedRMSD -1
REMARK  0 active torsions:
REMARK  status: ('A' for Active; 'I' for Inactive)
ROOT
ATOM      1  C   UNL d   1       5.999  -4.012   4.674  0.00  0.00     0.020 A 
ATOM      2  C1  UNL d   1       5.640  -4.138   3.332  0.00  0.00     0.020 A 
ATOM      3  C2  UNL d   1       5.282  -3.007   2.596  0.00  0.00     0.034 A 
ATOM      4  C3  UNL d   1       5.282  -1.745   3.200  0.00  0.00     0.017 A 
ATOM      5  C4  UNL d   1       5.642  -1.619   4.547  0.00  0.00     0.017 A 
ATOM      6  C5  UNL d   1       6.000  -2.755   5.279  0.00  0.00     0.034 A 
ATOM      7 Cl   UNL d   1       5.666  -0.095   5.361  0.00  0.00    -0.070 Cl
ATOM      8 Cl1  UNL d   1       4.828  -0.389   2.229  0.00  0.00    -0.070 Cl
ENDROOT
TORSDOF 0
ENDMDL
