MODEL 1
REMARK minimizedAffinity 3.5571239
REMARK minimizedRMSD -1
REMARK  0 active torsions:
REMARK  status: ('A' for Active; 'I' for Inactive)
ROOT
ATOM      1  C   UNL d   1      -1.467  -1.276  -5.999  0.00  0.00     0.020 A 
ATOM      2  C1  UNL d   1      -2.608  -0.475  -5.997  0.00  0.00     0.020 A 
ATOM      3  C2  UNL d   1      -3.874  -1.063  -5.994  0.00  0.00     0.034 A 
ATOM      4  C3  UNL d   1      -4.003  -2.457  -5.994  0.00  0.00     0.017 A 
ATOM      5  C4  UNL d   1      -2.857  -3.260  -5.997  0.00  0.00     0.017 A 
ATOM      6  C5  UNL d   1      -1.592  -2.666  -5.999  0.00  0.00     0.034 A 
ATOM      7 Cl   UNL d   1      -2.936  -4.987  -5.997  0.00  0.00    -0.070 Cl
ATOM      8 Cl1  UNL d   1      -5.600  -3.116  -5.990  0.00  0.00    -0.070 Cl
ENDROOT
TORSDOF 0
ENDMDL
