MODEL 1
REMARK minimizedAffinity 10.4216595
REMARK minimizedRMSD -1
REMARK  0 active torsions:
REMARK  status: ('A' for Active; 'I' for Inactive)
ROOT
ATOM      1  C   UNL d   1      -2.961   2.015   1.107  0.00  0.00     0.020 A 
ATOM      2  C1  UNL d   1      -4.249   1.700   0.674  0.00  0.00     0.020 A 
ATOM      3  C2  UNL d   1      -4.701   0.380   0.731  0.00  0.00     0.034 A 
ATOM      4  C3  UNL d   1      -3.866  -0.630   1.222  0.00  0.00     0.017 A 
ATOM      5  C4  UNL d   1      -2.573  -0.313   1.657  0.00  0.00     0.017 A 
ATOM      6  C5  UNL d   1      -2.126   1.011   1.597  0.00  0.00     0.034 A 
ATOM      7 Cl   UNL d   1      -1.485  -1.504   2.276  0.00  0.00    -0.070 Cl
ATOM      8 Cl1  UNL d   1      -4.491  -2.240   1.265  0.00  0.00    -0.070 Cl
ENDROOT
TORSDOF 0
ENDMDL
