MODEL 1
REMARK minimizedAffinity -4.50117397
REMARK minimizedRMSD -1
REMARK  0 active torsions:
REMARK  status: ('A' for Active; 'I' for Inactive)
ROOT
ATOM      1  C2' OXE d   1      -1.660   1.127  -0.022  0.00  0.00     0.078 C 
ATOM      2  C1' OXE d   1      -0.084  -1.190  -0.197  0.00  0.00     0.078 C 
ATOM      3  C1  OXE d   1       0.615   0.117   0.082  0.00  0.00    -0.078 A 
ATOM      4  C2  OXE d   1      -0.158   1.252   0.120  0.00  0.00    -0.078 A 
ATOM      5  C3  OXE d   1       0.428   2.476   0.428  0.00  0.00     0.003 A 
ATOM      6  C4  OXE d   1       1.819   2.586   0.548  0.00  0.00    -0.002 A 
ATOM      7  C5  OXE d   1       2.630   1.448   0.473  0.00  0.00    -0.002 A 
ATOM      8  C6  OXE d   1       2.040   0.203   0.284  0.00  0.00     0.003 A 
ENDROOT
TORSDOF 0
ENDMDL
