MODEL 1
REMARK minimizedAffinity -3.19471121
REMARK minimizedRMSD -1
REMARK  0 active torsions:
REMARK  status: ('A' for Active; 'I' for Inactive)
ROOT
ATOM      1  C2' OXE d   1       2.483   2.718   0.696  0.00  0.00     0.078 C 
ATOM      2  C1' OXE d   1       2.689  -0.045   0.242  0.00  0.00     0.078 C 
ATOM      3  C1  OXE d   1       1.311   0.534   0.445  0.00  0.00    -0.078 A 
ATOM      4  C2  OXE d   1       1.223   1.879   0.712  0.00  0.00    -0.078 A 
ATOM      5  C3  OXE d   1      -0.027   2.473   0.853  0.00  0.00     0.003 A 
ATOM      6  C4  OXE d   1      -1.187   1.688   0.877  0.00  0.00    -0.002 A 
ATOM      7  C5  OXE d   1      -1.116   0.310   0.646  0.00  0.00    -0.002 A 
ATOM      8  C6  OXE d   1       0.118  -0.275   0.386  0.00  0.00     0.003 A 
ENDROOT
TORSDOF 0
ENDMDL
