MODEL 1
REMARK minimizedAffinity 4.29485798
REMARK minimizedRMSD -1
REMARK  0 active torsions:
REMARK  status: ('A' for Active; 'I' for Inactive)
ROOT
ATOM      1  C2' OXE d   1      -1.565  -1.188  -0.412  0.00  0.00     0.078 C 
ATOM      2  C1' OXE d   1      -2.977   0.850  -1.729  0.00  0.00     0.078 C 
ATOM      3  C1  OXE d   1      -1.986   1.254  -0.666  0.00  0.00    -0.078 A 
ATOM      4  C2  OXE d   1      -1.334   0.248   0.006  0.00  0.00    -0.078 A 
ATOM      5  C3  OXE d   1      -0.370   0.568   0.958  0.00  0.00     0.003 A 
ATOM      6  C4  OXE d   1      -0.169   1.898   1.345  0.00  0.00    -0.002 A 
ATOM      7  C5  OXE d   1      -0.851   2.935   0.701  0.00  0.00    -0.002 A 
ATOM      8  C6  OXE d   1      -1.730   2.634  -0.334  0.00  0.00     0.003 A 
ENDROOT
TORSDOF 0
ENDMDL
