MODEL 1
REMARK minimizedAffinity -0.0931922644
REMARK minimizedRMSD -1
REMARK  0 active torsions:
REMARK  status: ('A' for Active; 'I' for Inactive)
ROOT
ATOM      1  C2' OXE d   1       0.248   3.006   0.959  0.00  0.00     0.078 C 
ATOM      2  C1' OXE d   1       2.532   1.412   0.609  0.00  0.00     0.078 C 
ATOM      3  C1  OXE d   1       1.185   0.742   0.509  0.00  0.00    -0.078 A 
ATOM      4  C2  OXE d   1       0.074   1.521   0.728  0.00  0.00    -0.078 A 
ATOM      5  C3  OXE d   1      -1.195   0.965   0.593  0.00  0.00     0.003 A 
ATOM      6  C4  OXE d   1      -1.348  -0.412   0.389  0.00  0.00    -0.002 A 
ATOM      7  C5  OXE d   1      -0.228  -1.230   0.203  0.00  0.00    -0.002 A 
ATOM      8  C6  OXE d   1       1.041  -0.663   0.217  0.00  0.00     0.003 A 
ENDROOT
TORSDOF 0
ENDMDL
