MODEL 1
REMARK minimizedAffinity -5.8554287
REMARK minimizedRMSD -1
REMARK  0 active torsions:
REMARK  status: ('A' for Active; 'I' for Inactive)
ROOT
ATOM      1  C2' OXE d   1      -0.387  -0.787   0.361  0.00  0.00     0.078 C 
ATOM      2  C1' OXE d   1      -1.939   1.529   0.033  0.00  0.00     0.078 C 
ATOM      3  C1  OXE d   1      -0.444   1.693   0.140  0.00  0.00    -0.078 A 
ATOM      4  C2  OXE d   1       0.304   0.559   0.346  0.00  0.00    -0.078 A 
ATOM      5  C3  OXE d   1       1.692   0.648   0.397  0.00  0.00     0.003 A 
ATOM      6  C4  OXE d   1       2.323   1.898   0.393  0.00  0.00    -0.002 A 
ATOM      7  C5  OXE d   1       1.577   3.069   0.223  0.00  0.00    -0.002 A 
ATOM      8  C6  OXE d   1       0.200   2.981   0.053  0.00  0.00     0.003 A 
ENDROOT
TORSDOF 0
ENDMDL
