MODEL 1
REMARK minimizedAffinity -5.45043421
REMARK minimizedRMSD -1
REMARK  0 active torsions:
REMARK  status: ('A' for Active; 'I' for Inactive)
ROOT
ATOM      1  C2' OXE d   1      -0.805   2.319   0.263  0.00  0.00     0.078 C 
ATOM      2  C1' OXE d   1       1.893   2.460   1.026  0.00  0.00     0.078 C 
ATOM      3  C1  OXE d   1       1.335   1.107   0.661  0.00  0.00    -0.078 A 
ATOM      4  C2  OXE d   1       0.002   1.040   0.334  0.00  0.00    -0.078 A 
ATOM      5  C3  OXE d   1      -0.551  -0.174  -0.063  0.00  0.00     0.003 A 
ATOM      6  C4  OXE d   1       0.199  -1.353   0.015  0.00  0.00    -0.002 A 
ATOM      7  C5  OXE d   1       1.548  -1.314   0.384  0.00  0.00    -0.002 A 
ATOM      8  C6  OXE d   1       2.141  -0.089   0.668  0.00  0.00     0.003 A 
ENDROOT
TORSDOF 0
ENDMDL
