MODEL 1
REMARK minimizedAffinity -5.91171837
REMARK minimizedRMSD -1
REMARK  0 active torsions:
REMARK  status: ('A' for Active; 'I' for Inactive)
ROOT
ATOM      1  C2' OXE d   1       3.029   1.394  -0.462  0.00  0.00     0.078 C 
ATOM      2  C1' OXE d   1       1.665   3.770   0.150  0.00  0.00     0.078 C 
ATOM      3  C1  OXE d   1       0.954   2.464   0.406  0.00  0.00    -0.078 A 
ATOM      4  C2  OXE d   1       1.611   1.308   0.059  0.00  0.00    -0.078 A 
ATOM      5  C3  OXE d   1       1.023   0.075   0.324  0.00  0.00     0.003 A 
ATOM      6  C4  OXE d   1      -0.293   0.004   0.797  0.00  0.00    -0.002 A 
ATOM      7  C5  OXE d   1      -0.995   1.170   1.119  0.00  0.00    -0.002 A 
ATOM      8  C6  OXE d   1      -0.372   2.404   0.970  0.00  0.00     0.003 A 
ENDROOT
TORSDOF 0
ENDMDL
