MODEL 1
REMARK minimizedAffinity -4.11299181
REMARK minimizedRMSD -1
REMARK  0 active torsions:
REMARK  status: ('A' for Active; 'I' for Inactive)
ROOT
ATOM      1  C2' OXE d   1      -1.425   0.732   0.825  0.00  0.00     0.078 C 
ATOM      2  C1' OXE d   1       0.773  -0.487  -0.426  0.00  0.00     0.078 C 
ATOM      3  C1  OXE d   1       0.894   0.970  -0.053  0.00  0.00    -0.078 A 
ATOM      4  C2  OXE d   1      -0.203   1.570   0.517  0.00  0.00    -0.078 A 
ATOM      5  C3  OXE d   1      -0.126   2.897   0.930  0.00  0.00     0.003 A 
ATOM      6  C4  OXE d   1       1.004   3.668   0.632  0.00  0.00    -0.002 A 
ATOM      7  C5  OXE d   1       2.118   3.086   0.017  0.00  0.00    -0.002 A 
ATOM      8  C6  OXE d   1       2.095   1.731  -0.293  0.00  0.00     0.003 A 
ENDROOT
TORSDOF 0
ENDMDL
