MODEL 1
REMARK minimizedAffinity -6.19315529
REMARK minimizedRMSD -1
REMARK  0 active torsions:
REMARK  status: ('A' for Active; 'I' for Inactive)
ROOT
ATOM      1  C2' OXE d   1      -1.818   0.930  -0.076  0.00  0.00     0.078 C 
ATOM      2  C1' OXE d   1      -0.014  -1.220  -0.093  0.00  0.00     0.078 C 
ATOM      3  C1  OXE d   1       0.547   0.168   0.091  0.00  0.00    -0.078 A 
ATOM      4  C2  OXE d   1      -0.338   1.218   0.052  0.00  0.00    -0.078 A 
ATOM      5  C3  OXE d   1       0.120   2.514   0.272  0.00  0.00     0.003 A 
ATOM      6  C4  OXE d   1       1.492   2.772   0.379  0.00  0.00    -0.002 A 
ATOM      7  C5  OXE d   1       2.414   1.721   0.382  0.00  0.00    -0.002 A 
ATOM      8  C6  OXE d   1       1.956   0.412   0.282  0.00  0.00     0.003 A 
ENDROOT
TORSDOF 0
ENDMDL
