MODEL 1
REMARK minimizedAffinity -4.18770361
REMARK minimizedRMSD -1
REMARK  0 active torsions:
REMARK  status: ('A' for Active; 'I' for Inactive)
ROOT
ATOM      1  C2' OXE d   1       2.069   3.533   1.106  0.00  0.00     0.078 C 
ATOM      2  C1' OXE d   1       2.915   0.858   1.035  0.00  0.00     0.078 C 
ATOM      3  C1  OXE d   1       1.457   1.141   0.776  0.00  0.00    -0.078 A 
ATOM      4  C2  OXE d   1       1.042   2.449   0.858  0.00  0.00    -0.078 A 
ATOM      5  C3  OXE d   1      -0.282   2.772   0.574  0.00  0.00     0.003 A 
ATOM      6  C4  OXE d   1      -1.226   1.762   0.356  0.00  0.00    -0.002 A 
ATOM      7  C5  OXE d   1      -0.833   0.420   0.307  0.00  0.00    -0.002 A 
ATOM      8  C6  OXE d   1       0.509   0.097   0.472  0.00  0.00     0.003 A 
ENDROOT
TORSDOF 0
ENDMDL
