MODEL 1
REMARK minimizedAffinity -4.57372522
REMARK minimizedRMSD -1
REMARK  0 active torsions:
REMARK  status: ('A' for Active; 'I' for Inactive)
ROOT
ATOM      1  C2' OXE d   1      -0.221   2.919   0.989  0.00  0.00     0.078 C 
ATOM      2  C1' OXE d   1       2.250   1.674   0.517  0.00  0.00     0.078 C 
ATOM      3  C1  OXE d   1       1.024   0.798   0.592  0.00  0.00    -0.078 A 
ATOM      4  C2  OXE d   1      -0.174   1.411   0.870  0.00  0.00    -0.078 A 
ATOM      5  C3  OXE d   1      -1.344   0.658   0.896  0.00  0.00     0.003 A 
ATOM      6  C4  OXE d   1      -1.291  -0.738   0.794  0.00  0.00    -0.002 A 
ATOM      7  C5  OXE d   1      -0.076  -1.386   0.550  0.00  0.00    -0.002 A 
ATOM      8  C6  OXE d   1       1.082  -0.630   0.405  0.00  0.00     0.003 A 
ENDROOT
TORSDOF 0
ENDMDL
