MODEL 1
REMARK minimizedAffinity -2.09572625
REMARK minimizedRMSD -1
REMARK  0 active torsions:
REMARK  status: ('A' for Active; 'I' for Inactive)
ROOT
ATOM      1  C2' OXE d   1      -1.181   2.543   0.735  0.00  0.00     0.078 C 
ATOM      2  C1' OXE d   1      -3.095   0.527   1.126  0.00  0.00     0.078 C 
ATOM      3  C1  OXE d   1      -1.719   0.111   0.670  0.00  0.00    -0.078 A 
ATOM      4  C2  OXE d   1      -0.802   1.108   0.436  0.00  0.00    -0.078 A 
ATOM      5  C3  OXE d   1       0.498   0.776   0.066  0.00  0.00     0.003 A 
ATOM      6  C4  OXE d   1       0.837  -0.552  -0.218  0.00  0.00    -0.002 A 
ATOM      7  C5  OXE d   1      -0.093  -1.579  -0.024  0.00  0.00    -0.002 A 
ATOM      8  C6  OXE d   1      -1.360  -1.269   0.459  0.00  0.00     0.003 A 
ENDROOT
TORSDOF 0
ENDMDL
