MODEL 1
REMARK minimizedAffinity -5.83324385
REMARK minimizedRMSD -1
REMARK  0 active torsions:
REMARK  status: ('A' for Active; 'I' for Inactive)
ROOT
ATOM      1  C2' OXE d   1      -2.018   1.192   0.014  0.00  0.00     0.078 C 
ATOM      2  C1' OXE d   1       0.020  -0.698  -0.379  0.00  0.00     0.078 C 
ATOM      3  C1  OXE d   1       0.420   0.750  -0.242  0.00  0.00    -0.078 A 
ATOM      4  C2  OXE d   1      -0.587   1.673  -0.097  0.00  0.00    -0.078 A 
ATOM      5  C3  OXE d   1      -0.270   3.016   0.089  0.00  0.00     0.003 A 
ATOM      6  C4  OXE d   1       1.055   3.454  -0.024  0.00  0.00    -0.002 A 
ATOM      7  C5  OXE d   1       2.093   2.535  -0.212  0.00  0.00    -0.002 A 
ATOM      8  C6  OXE d   1       1.797   1.178  -0.280  0.00  0.00     0.003 A 
ENDROOT
TORSDOF 0
ENDMDL
