MODEL 1
REMARK minimizedAffinity -3.02055693
REMARK minimizedRMSD -1
REMARK  0 active torsions:
REMARK  status: ('A' for Active; 'I' for Inactive)
ROOT
ATOM      1  C2' OXE d   1       0.316  -0.506   0.050  0.00  0.00     0.078 C 
ATOM      2  C1' OXE d   1      -1.665   1.462   0.334  0.00  0.00     0.078 C 
ATOM      3  C1  OXE d   1      -0.268   1.799   0.791  0.00  0.00    -0.078 A 
ATOM      4  C2  OXE d   1       0.685   0.814   0.691  0.00  0.00    -0.078 A 
ATOM      5  C3  OXE d   1       2.002   1.090   1.048  0.00  0.00     0.003 A 
ATOM      6  C4  OXE d   1       2.333   2.311   1.649  0.00  0.00    -0.002 A 
ATOM      7  C5  OXE d   1       1.369   3.314   1.796  0.00  0.00    -0.002 A 
ATOM      8  C6  OXE d   1       0.077   3.090   1.335  0.00  0.00     0.003 A 
ENDROOT
TORSDOF 0
ENDMDL
