MODEL 1
REMARK minimizedAffinity -5.11898994
REMARK minimizedRMSD -1
REMARK  0 active torsions:
REMARK  status: ('A' for Active; 'I' for Inactive)
ROOT
ATOM      1  C2' OXE d   1      -0.014  -1.682   0.243  0.00  0.00     0.078 C 
ATOM      2  C1' OXE d   1      -2.119   0.145   0.575  0.00  0.00     0.078 C 
ATOM      3  C1  OXE d   1      -0.740   0.700   0.320  0.00  0.00    -0.078 A 
ATOM      4  C2  OXE d   1       0.292  -0.200   0.205  0.00  0.00    -0.078 A 
ATOM      5  C3  OXE d   1       1.575   0.255  -0.085  0.00  0.00     0.003 A 
ATOM      6  C4  OXE d   1       1.851   1.628  -0.109  0.00  0.00    -0.002 A 
ATOM      7  C5  OXE d   1       0.822   2.562   0.045  0.00  0.00    -0.002 A 
ATOM      8  C6  OXE d   1      -0.484   2.115   0.217  0.00  0.00     0.003 A 
ENDROOT
TORSDOF 0
ENDMDL
