MODEL 1
REMARK minimizedAffinity -4.56475687
REMARK minimizedRMSD -1
REMARK  0 active torsions:
REMARK  status: ('A' for Active; 'I' for Inactive)
ROOT
ATOM      1  C2' OXE d   1      -0.325  -0.266   0.308  0.00  0.00     0.078 C 
ATOM      2  C1' OXE d   1       2.453  -0.354   0.702  0.00  0.00     0.078 C 
ATOM      3  C1  OXE d   1       1.775   0.991   0.768  0.00  0.00    -0.078 A 
ATOM      4  C2  OXE d   1       0.423   1.031   0.528  0.00  0.00    -0.078 A 
ATOM      5  C3  OXE d   1      -0.260   2.239   0.631  0.00  0.00     0.003 A 
ATOM      6  C4  OXE d   1       0.440   3.436   0.825  0.00  0.00    -0.002 A 
ATOM      7  C5  OXE d   1       1.824   3.422   1.033  0.00  0.00    -0.002 A 
ATOM      8  C6  OXE d   1       2.499   2.207   1.050  0.00  0.00     0.003 A 
ENDROOT
TORSDOF 0
ENDMDL
