MODEL 1
REMARK minimizedAffinity -6.69102192
REMARK minimizedRMSD -1
REMARK  0 active torsions:
REMARK  status: ('A' for Active; 'I' for Inactive)
ROOT
ATOM      1  C2' OXE d   1       0.118  -0.088  -0.030  0.00  0.00     0.078 C 
ATOM      2  C1' OXE d   1       2.881   0.163   0.396  0.00  0.00     0.078 C 
ATOM      3  C1  OXE d   1       2.075   1.429   0.239  0.00  0.00    -0.078 A 
ATOM      4  C2  OXE d   1       0.731   1.295  -0.016  0.00  0.00    -0.078 A 
ATOM      5  C3  OXE d   1      -0.068   2.430  -0.116  0.00  0.00     0.003 A 
ATOM      6  C4  OXE d   1       0.509   3.706  -0.112  0.00  0.00    -0.002 A 
ATOM      7  C5  OXE d   1       1.882   3.863   0.107  0.00  0.00    -0.002 A 
ATOM      8  C6  OXE d   1       2.671   2.739   0.326  0.00  0.00     0.003 A 
ENDROOT
TORSDOF 0
ENDMDL
