MODEL 1
REMARK minimizedAffinity 8.80250168
REMARK minimizedRMSD -1
REMARK  0 active torsions:
REMARK  status: ('A' for Active; 'I' for Inactive)
ROOT
ATOM      1  C   UNL d   1      -5.527   4.005  -1.584  0.00  0.00     0.078 C 
ATOM      2  C1  UNL d   1      -5.163   2.606  -1.183  0.00  0.00    -0.077 A 
ATOM      3  C2  UNL d   1      -4.197   2.367  -0.198  0.00  0.00    -0.001 A 
ATOM      4  C3  UNL d   1      -3.861   1.060   0.158  0.00  0.00     0.003 A 
ATOM      5  C4  UNL d   1      -4.486  -0.018  -0.465  0.00  0.00    -0.005 A 
ATOM      6  C5  UNL d   1      -5.448   0.210  -1.447  0.00  0.00     0.003 A 
ATOM      7  C6  UNL d   1      -5.785   1.517  -1.805  0.00  0.00    -0.001 A 
ENDROOT
TORSDOF 0
ENDMDL
