MODEL 1
REMARK minimizedAffinity 4.48350191
REMARK minimizedRMSD -1
REMARK  0 active torsions:
REMARK  status: ('A' for Active; 'I' for Inactive)
ROOT
ATOM      1  C   UNL d   1       4.770   2.757  -1.653  0.00  0.00     0.078 C 
ATOM      2  C1  UNL d   1       3.842   1.865  -0.883  0.00  0.00    -0.077 A 
ATOM      3  C2  UNL d   1       4.114   1.518   0.446  0.00  0.00    -0.001 A 
ATOM      4  C3  UNL d   1       3.247   0.680   1.148  0.00  0.00     0.003 A 
ATOM      5  C4  UNL d   1       2.103   0.180   0.529  0.00  0.00    -0.005 A 
ATOM      6  C5  UNL d   1       1.826   0.518  -0.794  0.00  0.00     0.003 A 
ATOM      7  C6  UNL d   1       2.692   1.356  -1.498  0.00  0.00    -0.001 A 
ENDROOT
TORSDOF 0
ENDMDL
