MODEL 1
REMARK minimizedAffinity 10.718297
REMARK minimizedRMSD -1
REMARK  0 active torsions:
REMARK  status: ('A' for Active; 'I' for Inactive)
ROOT
ATOM      1  C   UNL d   1       3.585   1.975  -1.338  0.00  0.00     0.078 C 
ATOM      2  C1  UNL d   1       3.345   0.731  -0.536  0.00  0.00    -0.077 A 
ATOM      3  C2  UNL d   1       3.981   0.534   0.696  0.00  0.00    -0.001 A 
ATOM      4  C3  UNL d   1       3.756  -0.633   1.428  0.00  0.00     0.003 A 
ATOM      5  C4  UNL d   1       2.897  -1.613   0.935  0.00  0.00    -0.005 A 
ATOM      6  C5  UNL d   1       2.261  -1.427  -0.291  0.00  0.00     0.003 A 
ATOM      7  C6  UNL d   1       2.485  -0.260  -1.024  0.00  0.00    -0.001 A 
ENDROOT
TORSDOF 0
ENDMDL
