MODEL 1
REMARK minimizedAffinity 6.74711514
REMARK minimizedRMSD -1
REMARK  0 active torsions:
REMARK  status: ('A' for Active; 'I' for Inactive)
ROOT
ATOM      1  C   UNL d   1      -4.979   0.443  -5.722  0.00  0.00     0.078 C 
ATOM      2  C1  UNL d   1      -3.775   0.152  -4.878  0.00  0.00    -0.077 A 
ATOM      3  C2  UNL d   1      -2.658  -0.501  -5.414  0.00  0.00    -0.001 A 
ATOM      4  C3  UNL d   1      -1.548  -0.773  -4.614  0.00  0.00     0.003 A 
ATOM      5  C4  UNL d   1      -1.544  -0.398  -3.272  0.00  0.00    -0.005 A 
ATOM      6  C5  UNL d   1      -2.651   0.249  -2.728  0.00  0.00     0.003 A 
ATOM      7  C6  UNL d   1      -3.762   0.523  -3.527  0.00  0.00    -0.001 A 
ENDROOT
TORSDOF 0
ENDMDL
