MODEL 1
REMARK minimizedAffinity 15.8968725
REMARK minimizedRMSD -1
REMARK  0 active torsions:
REMARK  status: ('A' for Active; 'I' for Inactive)
ROOT
ATOM      1  C   UNL d   1       4.651   3.777   2.497  0.00  0.00     0.078 C 
ATOM      2  C1  UNL d   1       4.133   3.087   3.723  0.00  0.00    -0.077 A 
ATOM      3  C2  UNL d   1       4.951   2.899   4.844  0.00  0.00    -0.001 A 
ATOM      4  C3  UNL d   1       4.458   2.246   5.975  0.00  0.00     0.003 A 
ATOM      5  C4  UNL d   1       3.147   1.775   5.996  0.00  0.00    -0.005 A 
ATOM      6  C5  UNL d   1       2.327   1.956   4.884  0.00  0.00     0.003 A 
ATOM      7  C6  UNL d   1       2.817   2.609   3.752  0.00  0.00    -0.001 A 
ENDROOT
TORSDOF 0
ENDMDL
