MODEL 1
REMARK minimizedAffinity 2.45938826
REMARK minimizedRMSD -1
REMARK  0 active torsions:
REMARK  status: ('A' for Active; 'I' for Inactive)
ROOT
ATOM      1  C   UNL d   1      -4.836   2.744   2.156  0.00  0.00     0.078 C 
ATOM      2  C1  UNL d   1      -4.330   1.873   1.046  0.00  0.00    -0.077 A 
ATOM      3  C2  UNL d   1      -2.958   1.742   0.800  0.00  0.00    -0.001 A 
ATOM      4  C3  UNL d   1      -2.501   0.935  -0.244  0.00  0.00     0.003 A 
ATOM      5  C4  UNL d   1      -3.410   0.254  -1.051  0.00  0.00    -0.005 A 
ATOM      6  C5  UNL d   1      -4.778   0.379  -0.815  0.00  0.00     0.003 A 
ATOM      7  C6  UNL d   1      -5.236   1.185   0.228  0.00  0.00    -0.001 A 
ENDROOT
TORSDOF 0
ENDMDL
