MODEL 1
REMARK minimizedAffinity 7.06774759
REMARK minimizedRMSD -1
REMARK  0 active torsions:
REMARK  status: ('A' for Active; 'I' for Inactive)
ROOT
ATOM      1  C   UNL d   1      -4.327   2.503   1.396  0.00  0.00     0.078 C 
ATOM      2  C1  UNL d   1      -4.288   1.444   0.334  0.00  0.00    -0.077 A 
ATOM      3  C2  UNL d   1      -3.070   0.971  -0.168  0.00  0.00    -0.001 A 
ATOM      4  C3  UNL d   1      -3.049  -0.008  -1.163  0.00  0.00     0.003 A 
ATOM      5  C4  UNL d   1      -4.244  -0.520  -1.665  0.00  0.00    -0.005 A 
ATOM      6  C5  UNL d   1      -5.461  -0.053  -1.174  0.00  0.00     0.003 A 
ATOM      7  C6  UNL d   1      -5.484   0.925  -0.179  0.00  0.00    -0.001 A 
ENDROOT
TORSDOF 0
ENDMDL
