MODEL 1
REMARK minimizedAffinity 8.74760532
REMARK minimizedRMSD -1
REMARK  0 active torsions:
REMARK  status: ('A' for Active; 'I' for Inactive)
ROOT
ATOM      1  C   UNL d   1       1.229   1.963   5.361  0.00  0.00     0.078 C 
ATOM      2  C1  UNL d   1       1.577   3.361   4.947  0.00  0.00    -0.077 A 
ATOM      3  C2  UNL d   1       0.948   4.465   5.537  0.00  0.00    -0.001 A 
ATOM      4  C3  UNL d   1       1.274   5.761   5.135  0.00  0.00     0.003 A 
ATOM      5  C4  UNL d   1       2.230   5.966   4.142  0.00  0.00    -0.005 A 
ATOM      6  C5  UNL d   1       2.859   4.874   3.548  0.00  0.00     0.003 A 
ATOM      7  C6  UNL d   1       2.534   3.577   3.948  0.00  0.00    -0.001 A 
ENDROOT
TORSDOF 0
ENDMDL
