MODEL 1
REMARK minimizedAffinity -4.63567829
REMARK minimizedRMSD -1
REMARK  1 active torsions:
REMARK  status: ('A' for Active; 'I' for Inactive)
REMARK    1  A    between atoms: N_2  and  C1_3 
ROOT
ATOM      1  C1  UNL d   1      -0.526   0.805  -0.276  0.00  0.00     0.143 A 
ATOM      2  C2  UNL d   1      -0.526   0.685   1.117  0.00  0.00    -0.057 A 
ATOM      3  C3  UNL d   1      -0.823   1.778   1.941  0.00  0.00     0.033 A 
ATOM      4  C4  UNL d   1      -1.098   3.022   1.383  0.00  0.00    -0.042 A 
ATOM      5  C5  UNL d   1      -1.079   3.171   0.000  0.00  0.00     0.033 A 
ATOM      6  C6  UNL d   1      -0.788   2.074  -0.816  0.00  0.00    -0.057 A 
ENDROOT
BRANCH   1   7
ATOM      7  N   UNL d   1      -0.142  -0.219  -1.145  0.00  0.00    -0.732 N 
ATOM      8  C   UNL d   1       0.627  -1.346  -0.663  0.00  0.00     0.284 C 
ATOM      9  H3  UNL d   1      -0.879  -0.469  -1.801  0.00  0.00     0.395 HD
ENDBRANCH   1   7
TORSDOF 1
ENDMDL
