MODEL 1
REMARK minimizedAffinity -4.99756718
REMARK minimizedRMSD -1
REMARK  1 active torsions:
REMARK  status: ('A' for Active; 'I' for Inactive)
REMARK    1  A    between atoms: N_2  and  C1_3 
ROOT
ATOM      1  C1  UNL d   1      -0.400   0.933   0.297  0.00  0.00     0.143 A 
ATOM      2  C2  UNL d   1      -0.925   1.438   1.491  0.00  0.00    -0.057 A 
ATOM      3  C3  UNL d   1      -1.492   2.717   1.551  0.00  0.00     0.033 A 
ATOM      4  C4  UNL d   1      -1.517   3.527   0.421  0.00  0.00    -0.042 A 
ATOM      5  C5  UNL d   1      -0.978   3.055  -0.771  0.00  0.00     0.033 A 
ATOM      6  C6  UNL d   1      -0.420   1.775  -0.826  0.00  0.00    -0.057 A 
ENDROOT
BRANCH   1   7
ATOM      7  N   UNL d   1       0.264  -0.292   0.196  0.00  0.00    -0.732 N 
ATOM      8  C   UNL d   1       0.769  -0.754  -1.079  0.00  0.00     0.284 C 
ATOM      9  H3  UNL d   1       0.895  -0.457   0.977  0.00  0.00     0.395 HD
ENDBRANCH   1   7
TORSDOF 1
ENDMDL
