MODEL 1
REMARK minimizedAffinity -3.63484144
REMARK minimizedRMSD -1
REMARK  1 active torsions:
REMARK  status: ('A' for Active; 'I' for Inactive)
REMARK    1  A    between atoms: N_2  and  C1_3 
ROOT
ATOM      1  C1  UNL d   1      -0.196   0.611  -0.394  0.00  0.00     0.143 A 
ATOM      2  C2  UNL d   1      -0.123   0.529   1.000  0.00  0.00    -0.057 A 
ATOM      3  C3  UNL d   1      -0.381   1.644   1.807  0.00  0.00     0.033 A 
ATOM      4  C4  UNL d   1      -0.689   2.872   1.231  0.00  0.00    -0.042 A 
ATOM      5  C5  UNL d   1      -0.741   2.982  -0.154  0.00  0.00     0.033 A 
ATOM      6  C6  UNL d   1      -0.489   1.864  -0.955  0.00  0.00    -0.057 A 
ENDROOT
BRANCH   1   7
ATOM      7  N   UNL d   1       0.146  -0.436  -1.254  0.00  0.00    -0.732 N 
ATOM      8  C   UNL d   1      -0.182  -1.804  -0.916  0.00  0.00     0.284 C 
ATOM      9  H3  UNL d   1      -0.007  -0.201  -2.232  0.00  0.00     0.395 HD
ENDBRANCH   1   7
TORSDOF 1
ENDMDL
