MODEL 1
REMARK minimizedAffinity -5.54633427
REMARK minimizedRMSD -1
REMARK  1 active torsions:
REMARK  status: ('A' for Active; 'I' for Inactive)
REMARK    1  A    between atoms: N_2  and  C1_3 
ROOT
ATOM      1  C1  UNL d   1       0.038   1.220   0.408  0.00  0.00     0.143 A 
ATOM      2  C2  UNL d   1      -0.473   1.655   1.636  0.00  0.00    -0.057 A 
ATOM      3  C3  UNL d   1      -1.010   2.939   1.784  0.00  0.00     0.033 A 
ATOM      4  C4  UNL d   1      -1.020   3.824   0.711  0.00  0.00    -0.042 A 
ATOM      5  C5  UNL d   1      -0.494   3.422  -0.512  0.00  0.00     0.033 A 
ATOM      6  C6  UNL d   1       0.035   2.135  -0.655  0.00  0.00    -0.057 A 
ENDROOT
BRANCH   1   7
ATOM      7  N   UNL d   1       0.675  -0.010   0.223  0.00  0.00    -0.732 N 
ATOM      8  C   UNL d   1       1.044  -0.457  -1.103  0.00  0.00     0.284 C 
ATOM      9  H3  UNL d   1       1.379  -0.194   0.935  0.00  0.00     0.395 HD
ENDBRANCH   1   7
TORSDOF 1
ENDMDL
