MODEL 1
REMARK minimizedAffinity -5.28986454
REMARK minimizedRMSD -1
REMARK  1 active torsions:
REMARK  status: ('A' for Active; 'I' for Inactive)
REMARK    1  A    between atoms: N_2  and  C1_3 
ROOT
ATOM      1  C1  UNL d   1      -0.348   0.828   0.639  0.00  0.00     0.143 A 
ATOM      2  C2  UNL d   1      -0.551   1.572   1.806  0.00  0.00    -0.057 A 
ATOM      3  C3  UNL d   1      -0.987   2.901   1.754  0.00  0.00     0.033 A 
ATOM      4  C4  UNL d   1      -1.201   3.521   0.527  0.00  0.00    -0.042 A 
ATOM      5  C5  UNL d   1      -0.982   2.809  -0.647  0.00  0.00     0.033 A 
ATOM      6  C6  UNL d   1      -0.553   1.479  -0.587  0.00  0.00    -0.057 A 
ENDROOT
BRANCH   1   7
ATOM      7  N   UNL d   1       0.179  -0.466   0.623  0.00  0.00    -0.732 N 
ATOM      8  C   UNL d   1       0.304  -1.195  -0.621  0.00  0.00     0.284 C 
ATOM      9  H3  UNL d   1       0.976  -0.568   1.247  0.00  0.00     0.395 HD
ENDBRANCH   1   7
TORSDOF 1
ENDMDL
