MODEL 1
REMARK minimizedAffinity -3.52751374
REMARK minimizedRMSD -1
REMARK  0 active torsions:
REMARK  status: ('A' for Active; 'I' for Inactive)
ROOT
ATOM      1  C1  DEN d   1      -1.020   1.068  -0.292  0.00  0.00     0.130 A 
ATOM      2  C2  DEN d   1      -1.357  -0.340  -0.099  0.00  0.00    -0.031 A 
ATOM      3  C3  DEN d   1      -0.135  -1.046   0.335  0.00  0.00     0.027 A 
ATOM      4  C4  DEN d   1       2.232  -0.101   0.731  0.00  0.00     0.027 A 
ATOM      5  C5  DEN d   1       3.009   1.036   0.686  0.00  0.00    -0.003 A 
ATOM      6  C6  DEN d   1       2.510   2.246   0.283  0.00  0.00     0.001 A 
ATOM      7  C7  DEN d   1       1.185   2.358  -0.048  0.00  0.00     0.017 A 
ATOM      8  C8  DEN d   1       0.398   1.214  -0.013  0.00  0.00    -0.094 A 
ATOM      9  C9  DEN d   1       0.918   0.003   0.409  0.00  0.00    -0.072 A 
ENDROOT
TORSDOF 0
ENDMDL
