MODEL 1
REMARK minimizedAffinity -3.7115705
REMARK minimizedRMSD -1
REMARK  0 active torsions:
REMARK  status: ('A' for Active; 'I' for Inactive)
ROOT
ATOM      1  C1  DEN d   1       2.423  -0.459   0.670  0.00  0.00     0.130 A 
ATOM      2  C2  DEN d   1       2.372   0.894   0.121  0.00  0.00    -0.031 A 
ATOM      3  C3  DEN d   1       2.283   1.841   1.251  0.00  0.00     0.027 A 
ATOM      4  C4  DEN d   1       2.223   1.348   3.782  0.00  0.00     0.027 A 
ATOM      5  C5  DEN d   1       2.230   0.350   4.731  0.00  0.00    -0.003 A 
ATOM      6  C6  DEN d   1       2.267  -0.978   4.396  0.00  0.00     0.001 A 
ATOM      7  C7  DEN d   1       2.344  -1.342   3.077  0.00  0.00     0.017 A 
ATOM      8  C8  DEN d   1       2.330  -0.342   2.114  0.00  0.00    -0.094 A 
ATOM      9  C9  DEN d   1       2.305   0.994   2.474  0.00  0.00    -0.072 A 
ENDROOT
TORSDOF 0
ENDMDL
