MODEL 1
REMARK minimizedAffinity -5.23226452
REMARK minimizedRMSD -1
REMARK  0 active torsions:
REMARK  status: ('A' for Active; 'I' for Inactive)
ROOT
ATOM      1  C1  DEN d   1      -0.153  -0.412   0.191  0.00  0.00     0.130 A 
ATOM      2  C2  DEN d   1      -0.346   1.003  -0.115  0.00  0.00    -0.031 A 
ATOM      3  C3  DEN d   1       0.839   1.740   0.369  0.00  0.00     0.027 A 
ATOM      4  C4  DEN d   1       2.943   0.831   1.552  0.00  0.00     0.027 A 
ATOM      5  C5  DEN d   1       3.556  -0.302   2.039  0.00  0.00    -0.003 A 
ATOM      6  C6  DEN d   1       2.966  -1.536   1.975  0.00  0.00     0.001 A 
ATOM      7  C7  DEN d   1       1.744  -1.674   1.371  0.00  0.00     0.017 A 
ATOM      8  C8  DEN d   1       1.116  -0.534   0.884  0.00  0.00    -0.094 A 
ATOM      9  C9  DEN d   1       1.735   0.703   0.947  0.00  0.00    -0.072 A 
ENDROOT
TORSDOF 0
ENDMDL
