MODEL 1
REMARK minimizedAffinity -3.56028748
REMARK minimizedRMSD -1
REMARK  0 active torsions:
REMARK  status: ('A' for Active; 'I' for Inactive)
ROOT
ATOM      1  C1  DEN d   1      -0.570  -0.972   0.233  0.00  0.00     0.130 A 
ATOM      2  C2  DEN d   1      -1.430  -0.033  -0.481  0.00  0.00    -0.031 A 
ATOM      3  C3  DEN d   1      -0.707   1.249  -0.600  0.00  0.00     0.027 A 
ATOM      4  C4  DEN d   1       1.650   1.867   0.245  0.00  0.00     0.027 A 
ATOM      5  C5  DEN d   1       2.758   1.403   0.919  0.00  0.00    -0.003 A 
ATOM      6  C6  DEN d   1       2.821   0.136   1.437  0.00  0.00     0.001 A 
ATOM      7  C7  DEN d   1       1.773  -0.726   1.250  0.00  0.00     0.017 A 
ATOM      8  C8  DEN d   1       0.649  -0.263   0.578  0.00  0.00    -0.094 A 
ATOM      9  C9  DEN d   1       0.610   1.017   0.051  0.00  0.00    -0.072 A 
ENDROOT
TORSDOF 0
ENDMDL
