MODEL 1
REMARK minimizedAffinity -0.372005373
REMARK minimizedRMSD -1
REMARK  0 active torsions:
REMARK  status: ('A' for Active; 'I' for Inactive)
ROOT
ATOM      1  C1  DEN d   1       0.101  -0.190  -0.314  0.00  0.00     0.130 A 
ATOM      2  C2  DEN d   1      -1.207   0.435  -0.491  0.00  0.00    -0.031 A 
ATOM      3  C3  DEN d   1      -1.240   1.665   0.325  0.00  0.00     0.027 A 
ATOM      4  C4  DEN d   1       0.599   2.660   1.834  0.00  0.00     0.027 A 
ATOM      5  C5  DEN d   1       1.878   2.480   2.313  0.00  0.00    -0.003 A 
ATOM      6  C6  DEN d   1       2.636   1.389   1.979  0.00  0.00     0.001 A 
ATOM      7  C7  DEN d   1       2.137   0.458   1.106  0.00  0.00     0.017 A 
ATOM      8  C8  DEN d   1       0.846   0.629   0.625  0.00  0.00    -0.094 A 
ATOM      9  C9  DEN d   1       0.101   1.745   0.966  0.00  0.00    -0.072 A 
ENDROOT
TORSDOF 0
ENDMDL
