MODEL 1
REMARK minimizedAffinity -1.76497042
REMARK minimizedRMSD -1
REMARK  1 active torsions:
REMARK  status: ('A' for Active; 'I' for Inactive)
REMARK    1  A    between atoms: N_2  and  C1_3 
ROOT
ATOM      1  C1  UNL d   1       1.290  -2.774   0.177  0.00  0.00     0.143 A 
ATOM      2  C2  UNL d   1       2.106  -1.737   0.641  0.00  0.00    -0.057 A 
ATOM      3  C3  UNL d   1       1.577  -0.477   0.945  0.00  0.00     0.033 A 
ATOM      4  C4  UNL d   1       0.222  -0.222   0.763  0.00  0.00    -0.042 A 
ATOM      5  C5  UNL d   1      -0.604  -1.231   0.279  0.00  0.00     0.033 A 
ATOM      6  C6  UNL d   1      -0.071  -2.489  -0.017  0.00  0.00    -0.057 A 
ENDROOT
BRANCH   1   7
ATOM      7  N   UNL d   1       1.772  -4.018  -0.236  0.00  0.00    -0.732 N 
ATOM      8  C   UNL d   1       3.123  -4.427   0.081  0.00  0.00     0.284 C 
ATOM      9  H3  UNL d   1       1.079  -4.757  -0.134  0.00  0.00     0.395 HD
ENDBRANCH   1   7
TORSDOF 1
ENDMDL
