MODEL 1
REMARK minimizedAffinity 0.700220942
REMARK minimizedRMSD -1
REMARK  1 active torsions:
REMARK  status: ('A' for Active; 'I' for Inactive)
REMARK    1  A    between atoms: N_2  and  C1_3 
ROOT
ATOM      1  C1  UNL d   1       1.762  -0.126   0.046  0.00  0.00     0.143 A 
ATOM      2  C2  UNL d   1       1.826   0.081   1.428  0.00  0.00    -0.057 A 
ATOM      3  C3  UNL d   1       0.858  -0.452   2.287  0.00  0.00     0.033 A 
ATOM      4  C4  UNL d   1      -0.211  -1.180   1.775  0.00  0.00    -0.042 A 
ATOM      5  C5  UNL d   1      -0.308  -1.378   0.402  0.00  0.00     0.033 A 
ATOM      6  C6  UNL d   1       0.665  -0.848  -0.450  0.00  0.00    -0.057 A 
ENDROOT
BRANCH   1   7
ATOM      7  N   UNL d   1       2.638   0.461  -0.870  0.00  0.00    -0.732 N 
ATOM      8  C   UNL d   1       2.547   0.151  -2.281  0.00  0.00     0.284 C 
ATOM      9  H3  UNL d   1       2.807   1.444  -0.671  0.00  0.00     0.395 HD
ENDBRANCH   1   7
TORSDOF 1
ENDMDL
