MODEL 1
REMARK minimizedAffinity -0.505108416
REMARK minimizedRMSD -1
REMARK  1 active torsions:
REMARK  status: ('A' for Active; 'I' for Inactive)
REMARK    1  A    between atoms: N_2  and  C1_3 
ROOT
ATOM      1  C1  UNL d   1       1.788  -3.032   0.124  0.00  0.00     0.143 A 
ATOM      2  C2  UNL d   1       0.434  -3.055   0.476  0.00  0.00    -0.057 A 
ATOM      3  C3  UNL d   1      -0.262  -1.873   0.760  0.00  0.00     0.033 A 
ATOM      4  C4  UNL d   1       0.393  -0.647   0.724  0.00  0.00    -0.042 A 
ATOM      5  C5  UNL d   1       1.745  -0.603   0.401  0.00  0.00     0.033 A 
ATOM      6  C6  UNL d   1       2.433  -1.786   0.112  0.00  0.00    -0.057 A 
ENDROOT
BRANCH   1   7
ATOM      7  N   UNL d   1       2.559  -4.180  -0.073  0.00  0.00    -0.732 N 
ATOM      8  C   UNL d   1       3.976  -4.078  -0.349  0.00  0.00     0.284 C 
ATOM      9  H3  UNL d   1       2.314  -4.928   0.571  0.00  0.00     0.395 HD
ENDBRANCH   1   7
TORSDOF 1
ENDMDL
