MODEL 1
REMARK minimizedAffinity -1.57843137
REMARK minimizedRMSD -1
REMARK  1 active torsions:
REMARK  status: ('A' for Active; 'I' for Inactive)
REMARK    1  A    between atoms: N_2  and  C1_3 
ROOT
ATOM      1  C1  UNL d   1       1.776  -3.192   0.151  0.00  0.00     0.143 A 
ATOM      2  C2  UNL d   1       0.378  -3.170   0.101  0.00  0.00    -0.057 A 
ATOM      3  C3  UNL d   1      -0.336  -1.979   0.278  0.00  0.00     0.033 A 
ATOM      4  C4  UNL d   1       0.336  -0.789   0.538  0.00  0.00    -0.042 A 
ATOM      5  C5  UNL d   1       1.725  -0.792   0.617  0.00  0.00     0.033 A 
ATOM      6  C6  UNL d   1       2.432  -1.984   0.432  0.00  0.00    -0.057 A 
ENDROOT
BRANCH   1   7
ATOM      7  N   UNL d   1       2.538  -4.360   0.081  0.00  0.00    -0.732 N 
ATOM      8  C   UNL d   1       3.983  -4.296   0.020  0.00  0.00     0.284 C 
ATOM      9  H3  UNL d   1       2.180  -5.095   0.687  0.00  0.00     0.395 HD
ENDBRANCH   1   7
TORSDOF 1
ENDMDL
