MODEL 1
REMARK minimizedAffinity -1.7860148
REMARK minimizedRMSD -1
REMARK  1 active torsions:
REMARK  status: ('A' for Active; 'I' for Inactive)
REMARK    1  A    between atoms: N_2  and  C1_3 
ROOT
ATOM      1  C1  UNL d   1       0.964  -2.835   0.617  0.00  0.00     0.143 A 
ATOM      2  C2  UNL d   1       1.876  -1.784   0.756  0.00  0.00    -0.057 A 
ATOM      3  C3  UNL d   1       1.443  -0.460   0.899  0.00  0.00     0.033 A 
ATOM      4  C4  UNL d   1       0.085  -0.160   0.877  0.00  0.00    -0.042 A 
ATOM      5  C5  UNL d   1      -0.839  -1.186   0.715  0.00  0.00     0.033 A 
ATOM      6  C6  UNL d   1      -0.401  -2.507   0.579  0.00  0.00    -0.057 A 
ENDROOT
BRANCH   1   7
ATOM      7  N   UNL d   1       1.334  -4.160   0.373  0.00  0.00    -0.732 N 
ATOM      8  C   UNL d   1       2.721  -4.509   0.154  0.00  0.00     0.284 C 
ATOM      9  H3  UNL d   1       0.826  -4.820   0.958  0.00  0.00     0.395 HD
ENDBRANCH   1   7
TORSDOF 1
ENDMDL
