MODEL 1
REMARK minimizedAffinity 1.97532678
REMARK minimizedRMSD -1
REMARK  1 active torsions:
REMARK  status: ('A' for Active; 'I' for Inactive)
REMARK    1  A    between atoms: N_2  and  C1_3 
ROOT
ATOM      1  C1  UNL d   1       3.881  -4.158  -0.262  0.00  0.00     0.143 A 
ATOM      2  C2  UNL d   1       4.339  -2.837  -0.306  0.00  0.00    -0.057 A 
ATOM      3  C3  UNL d   1       3.484  -1.763  -0.033  0.00  0.00     0.033 A 
ATOM      4  C4  UNL d   1       2.144  -1.990   0.262  0.00  0.00    -0.042 A 
ATOM      5  C5  UNL d   1       1.661  -3.294   0.287  0.00  0.00     0.033 A 
ATOM      6  C6  UNL d   1       2.521  -4.363   0.020  0.00  0.00    -0.057 A 
ENDROOT
BRANCH   1   7
ATOM      7  N   UNL d   1       4.658  -5.263  -0.620  0.00  0.00    -0.732 N 
ATOM      8  C   UNL d   1       5.402  -5.996   0.382  0.00  0.00     0.284 C 
ATOM      9  H3  UNL d   1       4.199  -5.852  -1.311  0.00  0.00     0.395 HD
ENDBRANCH   1   7
TORSDOF 1
ENDMDL
