MODEL 1
REMARK minimizedAffinity -4.40148735
REMARK minimizedRMSD -1
REMARK  1 active torsions:
REMARK  status: ('A' for Active; 'I' for Inactive)
REMARK    1  A    between atoms: N_2  and  C1_3 
ROOT
ATOM      1  C1  UNL d   1       1.076  -3.311   0.072  0.00  0.00     0.143 A 
ATOM      2  C2  UNL d   1      -0.309  -3.327  -0.125  0.00  0.00    -0.057 A 
ATOM      3  C3  UNL d   1      -1.065  -2.150  -0.060  0.00  0.00     0.033 A 
ATOM      4  C4  UNL d   1      -0.451  -0.937   0.233  0.00  0.00    -0.042 A 
ATOM      5  C5  UNL d   1       0.921  -0.901   0.457  0.00  0.00     0.033 A 
ATOM      6  C6  UNL d   1       1.671  -2.078   0.384  0.00  0.00    -0.057 A 
ENDROOT
BRANCH   1   7
ATOM      7  N   UNL d   1       1.869  -4.460   0.118  0.00  0.00    -0.732 N 
ATOM      8  C   UNL d   1       3.265  -4.409  -0.261  0.00  0.00     0.284 C 
ATOM      9  H3  UNL d   1       1.683  -5.028   0.941  0.00  0.00     0.395 HD
ENDBRANCH   1   7
TORSDOF 1
ENDMDL
