MODEL 1
REMARK minimizedAffinity -2.07273102
REMARK minimizedRMSD -1
REMARK  1 active torsions:
REMARK  status: ('A' for Active; 'I' for Inactive)
REMARK    1  A    between atoms: N_2  and  C1_3 
ROOT
ATOM      1  C1  UNL d   1       0.563  -1.998   0.340  0.00  0.00     0.143 A 
ATOM      2  C2  UNL d   1       1.707  -1.216   0.532  0.00  0.00    -0.057 A 
ATOM      3  C3  UNL d   1       2.989  -1.774   0.455  0.00  0.00     0.033 A 
ATOM      4  C4  UNL d   1       3.149  -3.134   0.212  0.00  0.00    -0.042 A 
ATOM      5  C5  UNL d   1       2.025  -3.935   0.043  0.00  0.00     0.033 A 
ATOM      6  C6  UNL d   1       0.748  -3.371   0.114  0.00  0.00    -0.057 A 
ENDROOT
BRANCH   1   7
ATOM      7  N   UNL d   1      -0.741  -1.523   0.501  0.00  0.00    -0.732 N 
ATOM      8  C   UNL d   1      -0.999  -0.331   1.280  0.00  0.00     0.284 C 
ATOM      9  H3  UNL d   1      -1.286  -1.586  -0.355  0.00  0.00     0.395 HD
ENDBRANCH   1   7
TORSDOF 1
ENDMDL
