MODEL 1
REMARK minimizedAffinity -2.67462897
REMARK minimizedRMSD -1
REMARK  1 active torsions:
REMARK  status: ('A' for Active; 'I' for Inactive)
REMARK    1  A    between atoms: N_2  and  C1_3 
ROOT
ATOM      1  C1  UNL d   1       3.011  -3.390  -0.050  0.00  0.00     0.143 A 
ATOM      2  C2  UNL d   1       3.094  -1.995   0.015  0.00  0.00    -0.057 A 
ATOM      3  C3  UNL d   1       1.959  -1.210   0.249  0.00  0.00     0.033 A 
ATOM      4  C4  UNL d   1       0.711  -1.807   0.395  0.00  0.00    -0.042 A 
ATOM      5  C5  UNL d   1       0.601  -3.190   0.310  0.00  0.00     0.033 A 
ATOM      6  C6  UNL d   1       1.739  -3.969   0.082  0.00  0.00    -0.057 A 
ENDROOT
BRANCH   1   7
ATOM      7  N   UNL d   1       4.087  -4.218  -0.377  0.00  0.00    -0.732 N 
ATOM      8  C   UNL d   1       4.533  -5.245   0.540  0.00  0.00     0.284 C 
ATOM      9  H3  UNL d   1       4.069  -4.511  -1.352  0.00  0.00     0.395 HD
ENDBRANCH   1   7
TORSDOF 1
ENDMDL
