MODEL 1
REMARK minimizedAffinity 4.6169672
REMARK minimizedRMSD -1
REMARK  1 active torsions:
REMARK  status: ('A' for Active; 'I' for Inactive)
REMARK    1  A    between atoms: N_2  and  C1_3 
ROOT
ATOM      1  C1  UNL d   1      -2.069   2.976   1.258  0.00  0.00     0.143 A 
ATOM      2  C2  UNL d   1      -2.994   2.749   0.233  0.00  0.00    -0.057 A 
ATOM      3  C3  UNL d   1      -3.490   1.465  -0.026  0.00  0.00     0.033 A 
ATOM      4  C4  UNL d   1      -3.046   0.378   0.720  0.00  0.00    -0.042 A 
ATOM      5  C5  UNL d   1      -2.108   0.577   1.727  0.00  0.00     0.033 A 
ATOM      6  C6  UNL d   1      -1.622   1.862   1.985  0.00  0.00    -0.057 A 
ENDROOT
BRANCH   1   7
ATOM      7  N   UNL d   1      -1.464   4.212   1.500  0.00  0.00    -0.732 N 
ATOM      8  C   UNL d   1      -1.344   5.193   0.443  0.00  0.00     0.284 C 
ATOM      9  H3  UNL d   1      -1.726   4.602   2.402  0.00  0.00     0.395 HD
ENDBRANCH   1   7
TORSDOF 1
ENDMDL
