MODEL 1
REMARK minimizedAffinity -4.21610928
REMARK minimizedRMSD -1
REMARK  1 active torsions:
REMARK  status: ('A' for Active; 'I' for Inactive)
REMARK    1  A    between atoms: N_2  and  C1_3 
ROOT
ATOM      1  C1  UNL d   1       1.178  -3.035   0.149  0.00  0.00     0.143 A 
ATOM      2  C2  UNL d   1      -0.220  -3.075   0.172  0.00  0.00    -0.057 A 
ATOM      3  C3  UNL d   1      -0.972  -1.968   0.584  0.00  0.00     0.033 A 
ATOM      4  C4  UNL d   1      -0.335  -0.808   1.011  0.00  0.00    -0.042 A 
ATOM      5  C5  UNL d   1       1.054  -0.754   1.021  0.00  0.00     0.033 A 
ATOM      6  C6  UNL d   1       1.799  -1.860   0.601  0.00  0.00    -0.057 A 
ENDROOT
BRANCH   1   7
ATOM      7  N   UNL d   1       1.983  -4.135  -0.157  0.00  0.00    -0.732 N 
ATOM      8  C   UNL d   1       3.422  -4.052  -0.035  0.00  0.00     0.284 C 
ATOM      9  H3  UNL d   1       1.587  -5.011   0.178  0.00  0.00     0.395 HD
ENDBRANCH   1   7
TORSDOF 1
ENDMDL
