MODEL 1
REMARK minimizedAffinity 3.38384318
REMARK minimizedRMSD -1
REMARK  1 active torsions:
REMARK  status: ('A' for Active; 'I' for Inactive)
REMARK    1  A    between atoms: N_2  and  C1_3 
ROOT
ATOM      1  C1  UNL d   1       1.532  -1.038   0.773  0.00  0.00     0.143 A 
ATOM      2  C2  UNL d   1       0.228  -0.578   0.563  0.00  0.00    -0.057 A 
ATOM      3  C3  UNL d   1      -0.832  -1.469   0.354  0.00  0.00     0.033 A 
ATOM      4  C4  UNL d   1      -0.600  -2.840   0.323  0.00  0.00    -0.042 A 
ATOM      5  C5  UNL d   1       0.693  -3.319   0.504  0.00  0.00     0.033 A 
ATOM      6  C6  UNL d   1       1.746  -2.425   0.719  0.00  0.00    -0.057 A 
ENDROOT
BRANCH   1   7
ATOM      7  N   UNL d   1       2.644  -0.200   0.888  0.00  0.00    -0.732 N 
ATOM      8  C   UNL d   1       2.843   0.602   2.076  0.00  0.00     0.284 C 
ATOM      9  H3  UNL d   1       3.493  -0.631   0.530  0.00  0.00     0.395 HD
ENDBRANCH   1   7
TORSDOF 1
ENDMDL
