MODEL 1
REMARK minimizedAffinity 1.36048663
REMARK minimizedRMSD -1
REMARK  0 active torsions:
REMARK  status: ('A' for Active; 'I' for Inactive)
ROOT
ATOM      1  O1  BZF d   1      -1.483  -2.412  -0.099  0.00  0.00    -0.204 OA
ATOM      2  C2  BZF d   1      -1.133  -1.077  -0.024  0.00  0.00     0.174 A 
ATOM      3  C3  BZF d   1      -1.240  -0.486  -1.231  0.00  0.00    -0.012 A 
ATOM      4  C3A BZF d   1      -1.773  -1.493  -2.097  0.00  0.00    -0.107 A 
ATOM      5  C4  BZF d   1      -2.117  -1.508  -3.418  0.00  0.00     0.055 A 
ATOM      6  C5  BZF d   1      -2.540  -2.673  -3.977  0.00  0.00    -0.016 A 
ATOM      7  C6  BZF d   1      -2.625  -3.840  -3.247  0.00  0.00     0.022 A 
ATOM      8  C7  BZF d   1      -2.299  -3.873  -1.932  0.00  0.00     0.029 A 
ATOM      9  C7A BZF d   1      -1.903  -2.690  -1.356  0.00  0.00     0.058 A 
ENDROOT
TORSDOF 0
ENDMDL
