MODEL 1
REMARK minimizedAffinity 1.18504822
REMARK minimizedRMSD -1
REMARK  0 active torsions:
REMARK  status: ('A' for Active; 'I' for Inactive)
ROOT
ATOM      1  O1  BZF d   1      -3.835   4.057   3.466  0.00  0.00    -0.204 OA
ATOM      2  C2  BZF d   1      -4.117   5.060   4.373  0.00  0.00     0.174 A 
ATOM      3  C3  BZF d   1      -4.909   5.999   3.816  0.00  0.00    -0.012 A 
ATOM      4  C3A BZF d   1      -5.212   5.509   2.507  0.00  0.00    -0.107 A 
ATOM      5  C4  BZF d   1      -5.969   5.988   1.476  0.00  0.00     0.055 A 
ATOM      6  C5  BZF d   1      -5.999   5.302   0.304  0.00  0.00    -0.016 A 
ATOM      7  C6  BZF d   1      -5.281   4.138   0.125  0.00  0.00     0.022 A 
ATOM      8  C7  BZF d   1      -4.520   3.621   1.120  0.00  0.00     0.029 A 
ATOM      9  C7A BZF d   1      -4.514   4.294   2.317  0.00  0.00     0.058 A 
ENDROOT
TORSDOF 0
ENDMDL
