MODEL 1
REMARK minimizedAffinity -3.9963088
REMARK minimizedRMSD -1
REMARK  0 active torsions:
REMARK  status: ('A' for Active; 'I' for Inactive)
ROOT
ATOM      1  O1  BZF d   1      -4.947   4.678   2.014  0.00  0.00    -0.204 OA
ATOM      2  C2  BZF d   1      -5.317   5.947   2.413  0.00  0.00     0.174 A 
ATOM      3  C3  BZF d   1      -5.491   5.997   3.749  0.00  0.00    -0.012 A 
ATOM      4  C3A BZF d   1      -5.121   4.700   4.226  0.00  0.00    -0.107 A 
ATOM      5  C4  BZF d   1      -5.067   4.136   5.468  0.00  0.00     0.055 A 
ATOM      6  C5  BZF d   1      -4.735   2.823   5.584  0.00  0.00    -0.016 A 
ATOM      7  C6  BZF d   1      -4.457   2.045   4.480  0.00  0.00     0.022 A 
ATOM      8  C7  BZF d   1      -4.492   2.561   3.227  0.00  0.00     0.029 A 
ATOM      9  C7A BZF d   1      -4.796   3.895   3.109  0.00  0.00     0.058 A 
ENDROOT
TORSDOF 0
ENDMDL
