MODEL 1
REMARK minimizedAffinity -0.193211794
REMARK minimizedRMSD -1
REMARK  0 active torsions:
REMARK  status: ('A' for Active; 'I' for Inactive)
ROOT
ATOM      1  O1  BZF d   1      -1.158  -2.003  -0.443  0.00  0.00    -0.204 OA
ATOM      2  C2  BZF d   1      -0.754  -0.682  -0.458  0.00  0.00     0.174 A 
ATOM      3  C3  BZF d   1      -1.060  -0.102  -1.637  0.00  0.00    -0.012 A 
ATOM      4  C3A BZF d   1      -1.778  -1.098  -2.371  0.00  0.00    -0.107 A 
ATOM      5  C4  BZF d   1      -2.359  -1.116  -3.607  0.00  0.00     0.055 A 
ATOM      6  C5  BZF d   1      -2.917  -2.270  -4.057  0.00  0.00    -0.016 A 
ATOM      7  C6  BZF d   1      -2.908  -3.424  -3.302  0.00  0.00     0.022 A 
ATOM      8  C7  BZF d   1      -2.347  -3.454  -2.068  0.00  0.00     0.029 A 
ATOM      9  C7A BZF d   1      -1.811  -2.280  -1.597  0.00  0.00     0.058 A 
ENDROOT
TORSDOF 0
ENDMDL
