MODEL 1
REMARK minimizedAffinity 5.20682001
REMARK minimizedRMSD -1
REMARK  0 active torsions:
REMARK  status: ('A' for Active; 'I' for Inactive)
ROOT
ATOM      1  O1  BZF d   1       3.073   4.161   1.400  0.00  0.00    -0.204 OA
ATOM      2  C2  BZF d   1       3.127   3.648   0.119  0.00  0.00     0.174 A 
ATOM      3  C3  BZF d   1       2.442   2.489   0.038  0.00  0.00    -0.012 A 
ATOM      4  C3A BZF d   1       1.850   2.311   1.329  0.00  0.00    -0.107 A 
ATOM      5  C4  BZF d   1       1.040   1.352   1.866  0.00  0.00     0.055 A 
ATOM      6  C5  BZF d   1       0.699   1.435   3.179  0.00  0.00    -0.016 A 
ATOM      7  C6  BZF d   1       1.154   2.459   3.984  0.00  0.00     0.022 A 
ATOM      8  C7  BZF d   1       1.956   3.436   3.495  0.00  0.00     0.029 A 
ATOM      9  C7A BZF d   1       2.275   3.373   2.160  0.00  0.00     0.058 A 
ENDROOT
TORSDOF 0
ENDMDL
