MODEL 1
REMARK minimizedAffinity 0.556278169
REMARK minimizedRMSD -1
REMARK  0 active torsions:
REMARK  status: ('A' for Active; 'I' for Inactive)
ROOT
ATOM      1  O1  BZF d   1      -5.992   5.118   0.921  0.00  0.00    -0.204 OA
ATOM      2  C2  BZF d   1      -5.293   4.112   0.282  0.00  0.00     0.174 A 
ATOM      3  C3  BZF d   1      -4.413   3.532   1.124  0.00  0.00    -0.012 A 
ATOM      4  C3A BZF d   1      -4.637   4.157   2.391  0.00  0.00    -0.107 A 
ATOM      5  C4  BZF d   1      -4.081   3.996   3.628  0.00  0.00     0.055 A 
ATOM      6  C5  BZF d   1      -4.473   4.814   4.640  0.00  0.00    -0.016 A 
ATOM      7  C6  BZF d   1      -5.413   5.805   4.449  0.00  0.00     0.022 A 
ATOM      8  C7  BZF d   1      -5.997   5.999   3.242  0.00  0.00     0.029 A 
ATOM      9  C7A BZF d   1      -5.627   5.153   2.225  0.00  0.00     0.058 A 
ENDROOT
TORSDOF 0
ENDMDL
