MODEL 1
REMARK minimizedAffinity 2.53431344
REMARK minimizedRMSD -1
REMARK  0 active torsions:
REMARK  status: ('A' for Active; 'I' for Inactive)
ROOT
ATOM      1  O1  BZF d   1       0.455  -0.862   1.311  0.00  0.00    -0.204 OA
ATOM      2  C2  BZF d   1       1.787  -0.561   1.106  0.00  0.00     0.174 A 
ATOM      3  C3  BZF d   1       1.996  -0.152  -0.162  0.00  0.00    -0.012 A 
ATOM      4  C3A BZF d   1       0.698  -0.113  -0.763  0.00  0.00    -0.107 A 
ATOM      5  C4  BZF d   1       0.248   0.230  -2.006  0.00  0.00     0.055 A 
ATOM      6  C5  BZF d   1      -1.072   0.088  -2.294  0.00  0.00    -0.016 A 
ATOM      7  C6  BZF d   1      -1.969  -0.399  -1.366  0.00  0.00     0.022 A 
ATOM      8  C7  BZF d   1      -1.571  -0.748  -0.118  0.00  0.00     0.029 A 
ATOM      9  C7A BZF d   1      -0.243  -0.574   0.186  0.00  0.00     0.058 A 
ENDROOT
TORSDOF 0
ENDMDL
