MODEL 1
REMARK minimizedAffinity 0.858681679
REMARK minimizedRMSD -1
REMARK  0 active torsions:
REMARK  status: ('A' for Active; 'I' for Inactive)
ROOT
ATOM      1  O1  BZF d   1       0.698   0.168  -0.504  0.00  0.00    -0.204 OA
ATOM      2  C2  BZF d   1      -0.609   0.546  -0.744  0.00  0.00     0.174 A 
ATOM      3  C3  BZF d   1      -0.843   0.644  -2.069  0.00  0.00    -0.012 A 
ATOM      4  C3A BZF d   1       0.370   0.218  -2.697  0.00  0.00    -0.107 A 
ATOM      5  C4  BZF d   1       0.753   0.079  -4.001  0.00  0.00     0.055 A 
ATOM      6  C5  BZF d   1       2.031  -0.290  -4.278  0.00  0.00    -0.016 A 
ATOM      7  C6  BZF d   1       2.952  -0.524  -3.278  0.00  0.00     0.022 A 
ATOM      8  C7  BZF d   1       2.617  -0.405  -1.970  0.00  0.00     0.029 A 
ATOM      9  C7A BZF d   1       1.317  -0.063  -1.686  0.00  0.00     0.058 A 
ENDROOT
TORSDOF 0
ENDMDL
