MODEL 1
REMARK minimizedAffinity 1.84939063
REMARK minimizedRMSD -1
REMARK  0 active torsions:
REMARK  status: ('A' for Active; 'I' for Inactive)
ROOT
ATOM      1  O1  BZF d   1      -3.763   5.532   0.588  0.00  0.00    -0.204 OA
ATOM      2  C2  BZF d   1      -4.938   5.600  -0.136  0.00  0.00     0.174 A 
ATOM      3  C3  BZF d   1      -6.000   5.729   0.685  0.00  0.00    -0.012 A 
ATOM      4  C3A BZF d   1      -5.448   5.836   2.000  0.00  0.00    -0.107 A 
ATOM      5  C4  BZF d   1      -5.998   6.000   3.239  0.00  0.00     0.055 A 
ATOM      6  C5  BZF d   1      -5.187   5.993   4.329  0.00  0.00    -0.016 A 
ATOM      7  C6  BZF d   1      -3.823   5.820   4.217  0.00  0.00     0.022 A 
ATOM      8  C7  BZF d   1      -3.230   5.659   3.009  0.00  0.00     0.029 A 
ATOM      9  C7A BZF d   1      -4.044   5.699   1.903  0.00  0.00     0.058 A 
ENDROOT
TORSDOF 0
ENDMDL
