MODEL 1
REMARK minimizedAffinity 8.2964468
REMARK minimizedRMSD -1
REMARK  0 active torsions:
REMARK  status: ('A' for Active; 'I' for Inactive)
ROOT
ATOM      1  O1  BZF d   1      -3.924   4.894  -0.280  0.00  0.00    -0.204 OA
ATOM      2  C2  BZF d   1      -4.979   5.393  -1.019  0.00  0.00     0.174 A 
ATOM      3  C3  BZF d   1      -5.959   5.844  -0.211  0.00  0.00    -0.012 A 
ATOM      4  C3A BZF d   1      -5.449   5.697   1.118  0.00  0.00    -0.107 A 
ATOM      5  C4  BZF d   1      -5.951   5.985   2.354  0.00  0.00     0.055 A 
ATOM      6  C5  BZF d   1      -5.229   5.652   3.456  0.00  0.00    -0.016 A 
ATOM      7  C6  BZF d   1      -4.003   5.025   3.358  0.00  0.00     0.022 A 
ATOM      8  C7  BZF d   1      -3.461   4.724   2.153  0.00  0.00     0.029 A 
ATOM      9  C7A BZF d   1      -4.174   5.089   1.037  0.00  0.00     0.058 A 
ENDROOT
TORSDOF 0
ENDMDL
