MODEL 1
REMARK minimizedAffinity 6.73678303
REMARK minimizedRMSD -1
REMARK  0 active torsions:
REMARK  status: ('A' for Active; 'I' for Inactive)
ROOT
ATOM      1  O1  BZF d   1       1.610  -0.666  -0.385  0.00  0.00    -0.204 OA
ATOM      2  C2  BZF d   1       0.316  -0.249  -0.143  0.00  0.00     0.174 A 
ATOM      3  C3  BZF d   1      -0.266   0.188  -1.278  0.00  0.00    -0.012 A 
ATOM      4  C3A BZF d   1       0.696  -0.051  -2.310  0.00  0.00    -0.107 A 
ATOM      5  C4  BZF d   1       0.696   0.157  -3.660  0.00  0.00     0.055 A 
ATOM      6  C5  BZF d   1       1.822  -0.117  -4.370  0.00  0.00    -0.016 A 
ATOM      7  C6  BZF d   1       2.964  -0.596  -3.763  0.00  0.00     0.022 A 
ATOM      8  C7  BZF d   1       3.010  -0.823  -2.428  0.00  0.00     0.029 A 
ATOM      9  C7A BZF d   1       1.864  -0.578  -1.713  0.00  0.00     0.058 A 
ENDROOT
TORSDOF 0
ENDMDL
