MODEL 1
REMARK minimizedAffinity -1.17509389
REMARK minimizedRMSD -1
REMARK  0 active torsions:
REMARK  status: ('A' for Active; 'I' for Inactive)
ROOT
ATOM      1  O1  BZF d   1      -5.454   4.423   3.536  0.00  0.00    -0.204 OA
ATOM      2  C2  BZF d   1      -4.583   5.285   4.174  0.00  0.00     0.174 A 
ATOM      3  C3  BZF d   1      -3.872   5.998   3.277  0.00  0.00    -0.012 A 
ATOM      4  C3A BZF d   1      -4.393   5.621   1.999  0.00  0.00    -0.107 A 
ATOM      5  C4  BZF d   1      -4.105   5.999   0.719  0.00  0.00     0.055 A 
ATOM      6  C5  BZF d   1      -4.745   5.386  -0.311  0.00  0.00    -0.016 A 
ATOM      7  C6  BZF d   1      -5.675   4.389  -0.098  0.00  0.00     0.022 A 
ATOM      8  C7  BZF d   1      -5.998   3.984   1.154  0.00  0.00     0.029 A 
ATOM      9  C7A BZF d   1      -5.376   4.624   2.198  0.00  0.00     0.058 A 
ENDROOT
TORSDOF 0
ENDMDL
