MODEL 1
REMARK minimizedAffinity -3.13367319
REMARK minimizedRMSD -1
REMARK  0 active torsions:
REMARK  status: ('A' for Active; 'I' for Inactive)
ROOT
ATOM      1  O1  BZF d   1      -3.759   5.867   1.597  0.00  0.00    -0.204 OA
ATOM      2  C2  BZF d   1      -4.937   5.977   0.882  0.00  0.00     0.174 A 
ATOM      3  C3  BZF d   1      -6.000   5.990   1.712  0.00  0.00    -0.012 A 
ATOM      4  C3A BZF d   1      -5.448   5.974   3.032  0.00  0.00    -0.107 A 
ATOM      5  C4  BZF d   1      -6.000   5.991   4.281  0.00  0.00     0.055 A 
ATOM      6  C5  BZF d   1      -5.185   5.893   5.364  0.00  0.00    -0.016 A 
ATOM      7  C6  BZF d   1      -3.817   5.771   5.236  0.00  0.00     0.022 A 
ATOM      8  C7  BZF d   1      -3.223   5.754   4.017  0.00  0.00     0.029 A 
ATOM      9  C7A BZF d   1      -4.041   5.887   2.922  0.00  0.00     0.058 A 
ENDROOT
TORSDOF 0
ENDMDL
