MODEL 1
REMARK minimizedAffinity -6.25725317
REMARK minimizedRMSD -1
REMARK  0 active torsions:
REMARK  status: ('A' for Active; 'I' for Inactive)
ROOT
ATOM      1  O1  BZF d   1      -5.606  -3.219   1.405  0.00  0.00    -0.204 OA
ATOM      2  C2  BZF d   1      -5.859  -4.499   0.951  0.00  0.00     0.174 A 
ATOM      3  C3  BZF d   1      -4.948  -4.869   0.029  0.00  0.00    -0.012 A 
ATOM      4  C3A BZF d   1      -4.015  -3.786  -0.034  0.00  0.00    -0.107 A 
ATOM      5  C4  BZF d   1      -2.877  -3.568  -0.756  0.00  0.00     0.055 A 
ATOM      6  C5  BZF d   1      -2.238  -2.374  -0.639  0.00  0.00    -0.016 A 
ATOM      7  C6  BZF d   1      -2.713  -1.375   0.186  0.00  0.00     0.022 A 
ATOM      8  C7  BZF d   1      -3.836  -1.546   0.925  0.00  0.00     0.029 A 
ATOM      9  C7A BZF d   1      -4.465  -2.764   0.834  0.00  0.00     0.058 A 
ENDROOT
TORSDOF 0
ENDMDL
