MODEL 1
REMARK minimizedAffinity 8.01296806
REMARK minimizedRMSD -1
REMARK  0 active torsions:
REMARK  status: ('A' for Active; 'I' for Inactive)
ROOT
ATOM      1  O1  BZF d   1      -2.036  -3.494  -1.809  0.00  0.00    -0.204 OA
ATOM      2  C2  BZF d   1      -2.615  -3.584  -3.061  0.00  0.00     0.174 A 
ATOM      3  C3  BZF d   1      -2.817  -2.357  -3.583  0.00  0.00    -0.012 A 
ATOM      4  C3A BZF d   1      -2.251  -1.447  -2.637  0.00  0.00    -0.107 A 
ATOM      5  C4  BZF d   1      -2.127  -0.087  -2.599  0.00  0.00     0.055 A 
ATOM      6  C5  BZF d   1      -1.588   0.497  -1.497  0.00  0.00    -0.016 A 
ATOM      7  C6  BZF d   1      -1.168  -0.246  -0.414  0.00  0.00     0.022 A 
ATOM      8  C7  BZF d   1      -1.266  -1.597  -0.406  0.00  0.00     0.029 A 
ATOM      9  C7A BZF d   1      -1.779  -2.193  -1.532  0.00  0.00     0.058 A 
ENDROOT
TORSDOF 0
ENDMDL
