MODEL 1
REMARK minimizedAffinity -1.42060721
REMARK minimizedRMSD -1
REMARK  0 active torsions:
REMARK  status: ('A' for Active; 'I' for Inactive)
ROOT
ATOM      1  O1  BZF d   1      -4.660   3.864   1.979  0.00  0.00    -0.204 OA
ATOM      2  C2  BZF d   1      -5.039   4.976   1.253  0.00  0.00     0.174 A 
ATOM      3  C3  BZF d   1      -5.451   5.965   2.073  0.00  0.00    -0.012 A 
ATOM      4  C3A BZF d   1      -5.234   5.470   3.398  0.00  0.00    -0.107 A 
ATOM      5  C4  BZF d   1      -5.433   5.998   4.641  0.00  0.00     0.055 A 
ATOM      6  C5  BZF d   1      -5.187   5.228   5.733  0.00  0.00    -0.016 A 
ATOM      7  C6  BZF d   1      -4.748   3.925   5.619  0.00  0.00     0.022 A 
ATOM      8  C7  BZF d   1      -4.532   3.359   4.406  0.00  0.00     0.029 A 
ATOM      9  C7A BZF d   1      -4.747   4.146   3.301  0.00  0.00     0.058 A 
ENDROOT
TORSDOF 0
ENDMDL
