MODEL 1
REMARK minimizedAffinity 4.21761131
REMARK minimizedRMSD -1
REMARK  0 active torsions:
REMARK  status: ('A' for Active; 'I' for Inactive)
ROOT
ATOM      1  O1  BZF d   1       2.847  -0.737   4.004  0.00  0.00    -0.204 OA
ATOM      2  C2  BZF d   1       2.312  -1.195   5.193  0.00  0.00     0.174 A 
ATOM      3  C3  BZF d   1       1.696  -0.196   5.857  0.00  0.00    -0.012 A 
ATOM      4  C3A BZF d   1       1.775   0.938   4.988  0.00  0.00    -0.107 A 
ATOM      5  C4  BZF d   1       1.329   2.225   5.082  0.00  0.00     0.055 A 
ATOM      6  C5  BZF d   1       1.634   3.104   4.091  0.00  0.00    -0.016 A 
ATOM      7  C6  BZF d   1       2.386   2.731   2.996  0.00  0.00     0.022 A 
ATOM      8  C7  BZF d   1       2.846   1.463   2.856  0.00  0.00     0.029 A 
ATOM      9  C7A BZF d   1       2.512   0.565   3.840  0.00  0.00     0.058 A 
ENDROOT
TORSDOF 0
ENDMDL
