MODEL 1
REMARK minimizedAffinity 12.0173512
REMARK minimizedRMSD -1
REMARK  0 active torsions:
REMARK  status: ('A' for Active; 'I' for Inactive)
ROOT
ATOM      1  O1  BZF d   1      -0.703  -0.332  -2.396  0.00  0.00    -0.204 OA
ATOM      2  C2  BZF d   1      -0.680  -0.470  -1.022  0.00  0.00     0.174 A 
ATOM      3  C3  BZF d   1      -1.388  -1.552  -0.638  0.00  0.00    -0.012 A 
ATOM      4  C3A BZF d   1      -1.807  -2.178  -1.854  0.00  0.00    -0.107 A 
ATOM      5  C4  BZF d   1      -2.530  -3.303  -2.129  0.00  0.00     0.055 A 
ATOM      6  C5  BZF d   1      -2.827  -3.597  -3.422  0.00  0.00    -0.016 A 
ATOM      7  C6  BZF d   1      -2.422  -2.787  -4.463  0.00  0.00     0.022 A 
ATOM      8  C7  BZF d   1      -1.699  -1.663  -4.239  0.00  0.00     0.029 A 
ATOM      9  C7A BZF d   1      -1.369  -1.381  -2.936  0.00  0.00     0.058 A 
ENDROOT
TORSDOF 0
ENDMDL
