MODEL 1
REMARK minimizedAffinity 3.01311588
REMARK minimizedRMSD -1
REMARK  0 active torsions:
REMARK  status: ('A' for Active; 'I' for Inactive)
ROOT
ATOM      1  C   UNL d   1       2.382  -2.117  -0.489  0.00  0.00     0.172 C 
ATOM      2  N   UNL d   1       2.808  -3.342   0.146  0.00  0.00    -0.070 N 
ATOM      3  C1  UNL d   1       3.943  -4.045  -0.157  0.00  0.00    -0.004 A 
ATOM      4  C2  UNL d   1       3.989  -5.148   0.668  0.00  0.00    -0.047 A 
ATOM      5  C3  UNL d   1       2.841  -5.107   1.494  0.00  0.00    -0.047 A 
ATOM      6  C4  UNL d   1       2.127  -3.978   1.150  0.00  0.00    -0.004 A 
ENDROOT
TORSDOF 0
ENDMDL
