MODEL 1
REMARK minimizedAffinity 1.3944782
REMARK minimizedRMSD -1
REMARK  0 active torsions:
REMARK  status: ('A' for Active; 'I' for Inactive)
ROOT
ATOM      1  C   UNL d   1       1.140  -1.429   0.101  0.00  0.00     0.172 C 
ATOM      2  N   UNL d   1       0.195  -1.033   1.117  0.00  0.00    -0.070 N 
ATOM      3  C1  UNL d   1       0.239  -1.400   2.436  0.00  0.00    -0.004 A 
ATOM      4  C2  UNL d   1      -0.835  -0.817   3.073  0.00  0.00    -0.047 A 
ATOM      5  C3  UNL d   1      -1.550  -0.074   2.103  0.00  0.00    -0.047 A 
ATOM      6  C4  UNL d   1      -0.891  -0.225   0.902  0.00  0.00    -0.004 A 
ENDROOT
TORSDOF 0
ENDMDL
