MODEL 1
REMARK minimizedAffinity 0.694940805
REMARK minimizedRMSD -1
REMARK  0 active torsions:
REMARK  status: ('A' for Active; 'I' for Inactive)
ROOT
ATOM      1  C   UNL d   1       1.659  -1.258  -0.342  0.00  0.00     0.172 C 
ATOM      2  N   UNL d   1       2.286  -2.527  -0.057  0.00  0.00    -0.070 N 
ATOM      3  C1  UNL d   1       3.481  -2.959  -0.566  0.00  0.00    -0.004 A 
ATOM      4  C2  UNL d   1       3.729  -4.214  -0.054  0.00  0.00    -0.047 A 
ATOM      5  C3  UNL d   1       2.644  -4.548   0.792  0.00  0.00    -0.047 A 
ATOM      6  C4  UNL d   1       1.766  -3.486   0.772  0.00  0.00    -0.004 A 
ENDROOT
TORSDOF 0
ENDMDL
