MODEL 1
REMARK minimizedAffinity 23.5131149
REMARK minimizedRMSD -1
REMARK  0 active torsions:
REMARK  status: ('A' for Active; 'I' for Inactive)
ROOT
ATOM      1  C   UNL d   1       1.308  -1.658  -4.671  0.00  0.00     0.124 A 
ATOM      2  C1  UNL d   1       1.660  -2.863  -5.263  0.00  0.00     0.062 A 
ATOM      3  C2  UNL d   1       0.710  -3.867  -5.425  0.00  0.00     0.162 A 
ATOM      4  C3  UNL d   1      -0.602  -3.671  -4.995  0.00  0.00    -0.034 A 
ATOM      5  C4  UNL d   1      -0.949  -2.456  -4.399  0.00  0.00     0.162 A 
ATOM      6  C5  UNL d   1       0.004  -1.456  -4.240  0.00  0.00     0.062 A 
ATOM      7  F   UNL d   1      -0.338  -0.292  -3.668  0.00  0.00    -0.097 F 
ATOM      8  F1  UNL d   1      -2.201  -2.234  -3.974  0.00  0.00    -0.096 F 
ATOM      9  I   UNL d   1      -2.025  -5.170  -5.234  0.00  0.00    -0.060 I 
ATOM     10  F2  UNL d   1       1.078  -5.021  -6.000  0.00  0.00    -0.096 F 
ATOM     11  F3  UNL d   1       2.919  -3.061  -5.680  0.00  0.00    -0.097 F 
ATOM     12  F4  UNL d   1       2.224  -0.693  -4.516  0.00  0.00    -0.092 F 
ENDROOT
TORSDOF 0
ENDMDL
