MODEL 1
REMARK minimizedAffinity 18.4742889
REMARK minimizedRMSD -1
REMARK  0 active torsions:
REMARK  status: ('A' for Active; 'I' for Inactive)
ROOT
ATOM      1  C   UNL d   1       1.607  -1.353   3.540  0.00  0.00     0.124 A 
ATOM      2  C1  UNL d   1       1.034  -2.616   3.587  0.00  0.00     0.062 A 
ATOM      3  C2  UNL d   1      -0.267  -2.812   3.132  0.00  0.00     0.162 A 
ATOM      4  C3  UNL d   1      -1.004  -1.742   2.626  0.00  0.00    -0.034 A 
ATOM      5  C4  UNL d   1      -0.421  -0.474   2.583  0.00  0.00     0.162 A 
ATOM      6  C5  UNL d   1       0.879  -0.283   3.038  0.00  0.00     0.062 A 
ATOM      7  F   UNL d   1       1.431   0.938   2.992  0.00  0.00    -0.097 F 
ATOM      8  F1  UNL d   1      -1.102   0.577   2.102  0.00  0.00    -0.096 F 
ATOM      9  I   UNL d   1      -2.949  -2.031   1.945  0.00  0.00    -0.060 I 
ATOM     10  F2  UNL d   1      -0.795  -4.044   3.190  0.00  0.00    -0.096 F 
ATOM     11  F3  UNL d   1       1.735  -3.651   4.072  0.00  0.00    -0.097 F 
ATOM     12  F4  UNL d   1       2.859  -1.167   3.979  0.00  0.00    -0.092 F 
ENDROOT
TORSDOF 0
ENDMDL
