MODEL 1
REMARK minimizedAffinity 14.2152119
REMARK minimizedRMSD -1
REMARK  0 active torsions:
REMARK  status: ('A' for Active; 'I' for Inactive)
ROOT
ATOM      1  C   UNL d   1       0.710   1.275   4.597  0.00  0.00     0.124 A 
ATOM      2  C1  UNL d   1      -0.334   1.781   3.835  0.00  0.00     0.062 A 
ATOM      3  C2  UNL d   1      -0.992   0.965   2.919  0.00  0.00     0.162 A 
ATOM      4  C3  UNL d   1      -0.609  -0.367   2.761  0.00  0.00    -0.034 A 
ATOM      5  C4  UNL d   1       0.442  -0.868   3.531  0.00  0.00     0.162 A 
ATOM      6  C5  UNL d   1       1.097  -0.048   4.444  0.00  0.00     0.062 A 
ATOM      7  F   UNL d   1       2.105  -0.539   5.180  0.00  0.00    -0.097 F 
ATOM      8  F1  UNL d   1       0.837  -2.144   3.404  0.00  0.00    -0.096 F 
ATOM      9  I   UNL d   1      -1.590  -1.590   1.393  0.00  0.00    -0.060 I 
ATOM     10  F2  UNL d   1      -1.997   1.481   2.196  0.00  0.00    -0.096 F 
ATOM     11  F3  UNL d   1      -0.709   3.060   3.979  0.00  0.00    -0.097 F 
ATOM     12  F4  UNL d   1       1.342   2.063   5.476  0.00  0.00    -0.092 F 
ENDROOT
TORSDOF 0
ENDMDL
