MODEL 1
REMARK minimizedAffinity 19.2670326
REMARK minimizedRMSD -1
REMARK  0 active torsions:
REMARK  status: ('A' for Active; 'I' for Inactive)
ROOT
ATOM      1  C   UNL d   1       0.986   0.158   3.735  0.00  0.00     0.124 A 
ATOM      2  C1  UNL d   1       0.387  -1.093   3.690  0.00  0.00     0.062 A 
ATOM      3  C2  UNL d   1       0.978  -2.175   4.335  0.00  0.00     0.162 A 
ATOM      4  C3  UNL d   1       2.175  -2.011   5.033  0.00  0.00    -0.034 A 
ATOM      5  C4  UNL d   1       2.771  -0.749   5.073  0.00  0.00     0.162 A 
ATOM      6  C5  UNL d   1       2.177   0.329   4.426  0.00  0.00     0.062 A 
ATOM      7  F   UNL d   1       2.757   1.538   4.471  0.00  0.00    -0.097 F 
ATOM      8  F1  UNL d   1       3.922  -0.556   5.735  0.00  0.00    -0.096 F 
ATOM      9  I   UNL d   1       3.062  -3.626   6.000  0.00  0.00    -0.060 I 
ATOM     10  F2  UNL d   1       0.378  -3.373   4.275  0.00  0.00    -0.096 F 
ATOM     11  F3  UNL d   1      -0.763  -1.261   3.021  0.00  0.00    -0.097 F 
ATOM     12  F4  UNL d   1       0.416   1.198   3.112  0.00  0.00    -0.092 F 
ENDROOT
TORSDOF 0
ENDMDL
