MODEL 1
REMARK minimizedAffinity 23.2442627
REMARK minimizedRMSD -1
REMARK  0 active torsions:
REMARK  status: ('A' for Active; 'I' for Inactive)
ROOT
ATOM      1  C   UNL d   1       4.662  -0.306  -5.545  0.00  0.00     0.124 A 
ATOM      2  C1  UNL d   1       3.844   0.732  -5.120  0.00  0.00     0.062 A 
ATOM      3  C2  UNL d   1       2.563   0.464  -4.647  0.00  0.00     0.162 A 
ATOM      4  C3  UNL d   1       2.091  -0.848  -4.597  0.00  0.00    -0.034 A 
ATOM      5  C4  UNL d   1       2.919  -1.886  -5.027  0.00  0.00     0.162 A 
ATOM      6  C5  UNL d   1       4.199  -1.613  -5.498  0.00  0.00     0.062 A 
ATOM      7  F   UNL d   1       4.988  -2.617  -5.909  0.00  0.00    -0.097 F 
ATOM      8  F1  UNL d   1       2.497  -3.159  -4.992  0.00  0.00    -0.096 F 
ATOM      9  I   UNL d   1       0.175  -1.252  -3.891  0.00  0.00    -0.060 I 
ATOM     10  F2  UNL d   1       1.794   1.486  -4.243  0.00  0.00    -0.096 F 
ATOM     11  F3  UNL d   1       4.289   1.996  -5.165  0.00  0.00    -0.097 F 
ATOM     12  F4  UNL d   1       5.895  -0.045  -6.000  0.00  0.00    -0.092 F 
ENDROOT
TORSDOF 0
ENDMDL
