MODEL 1
REMARK minimizedAffinity 26.8268509
REMARK minimizedRMSD -1
REMARK  0 active torsions:
REMARK  status: ('A' for Active; 'I' for Inactive)
ROOT
ATOM      1  C   UNL d   1       1.201  -0.829   3.261  0.00  0.00     0.124 A 
ATOM      2  C1  UNL d   1       0.290   0.071   2.726  0.00  0.00     0.062 A 
ATOM      3  C2  UNL d   1      -1.043  -0.295   2.563  0.00  0.00     0.162 A 
ATOM      4  C3  UNL d   1      -1.474  -1.568   2.938  0.00  0.00    -0.034 A 
ATOM      5  C4  UNL d   1      -0.551  -2.468   3.474  0.00  0.00     0.162 A 
ATOM      6  C5  UNL d   1       0.780  -2.097   3.635  0.00  0.00     0.062 A 
ATOM      7  F   UNL d   1       1.659  -2.968   4.152  0.00  0.00    -0.097 F 
ATOM      8  F1  UNL d   1      -0.931  -3.700   3.845  0.00  0.00    -0.096 F 
ATOM      9  I   UNL d   1      -3.466  -2.120   2.696  0.00  0.00    -0.060 I 
ATOM     10  F2  UNL d   1      -1.901   0.595   2.044  0.00  0.00    -0.096 F 
ATOM     11  F3  UNL d   1       0.695   1.297   2.363  0.00  0.00    -0.097 F 
ATOM     12  F4  UNL d   1       2.483  -0.474   3.415  0.00  0.00    -0.092 F 
ENDROOT
TORSDOF 0
ENDMDL
