MODEL 1
REMARK minimizedAffinity 20.2686996
REMARK minimizedRMSD -1
REMARK  0 active torsions:
REMARK  status: ('A' for Active; 'I' for Inactive)
ROOT
ATOM      1  C   UNL d   1       1.960  -0.831   4.155  0.00  0.00     0.124 A 
ATOM      2  C1  UNL d   1       1.308   0.222   3.527  0.00  0.00     0.062 A 
ATOM      3  C2  UNL d   1       0.010   0.058   3.054  0.00  0.00     0.162 A 
ATOM      4  C3  UNL d   1      -0.647  -1.163   3.208  0.00  0.00    -0.034 A 
ATOM      5  C4  UNL d   1       0.016  -2.217   3.839  0.00  0.00     0.162 A 
ATOM      6  C5  UNL d   1       1.314  -2.049   4.310  0.00  0.00     0.062 A 
ATOM      7  F   UNL d   1       1.942  -3.067   4.916  0.00  0.00    -0.097 F 
ATOM      8  F1  UNL d   1      -0.586  -3.405   4.003  0.00  0.00    -0.096 F 
ATOM      9  I   UNL d   1      -2.589  -1.411   2.502  0.00  0.00    -0.060 I 
ATOM     10  F2  UNL d   1      -0.596   1.093   2.452  0.00  0.00    -0.096 F 
ATOM     11  F3  UNL d   1       1.931   1.399   3.375  0.00  0.00    -0.097 F 
ATOM     12  F4  UNL d   1       3.210  -0.671   4.608  0.00  0.00    -0.092 F 
ENDROOT
TORSDOF 0
ENDMDL
