MODEL 1
REMARK minimizedAffinity 4.6620903
REMARK minimizedRMSD -1
REMARK  0 active torsions:
REMARK  status: ('A' for Active; 'I' for Inactive)
ROOT
ATOM      1  C   UNL d   1      -3.931  -3.012   2.474  0.00  0.00     0.023 A 
ATOM      2  C1  UNL d   1      -3.041  -3.884   1.846  0.00  0.00     0.003 A 
ATOM      3  C2  UNL d   1      -3.479  -4.696   0.798  0.00  0.00     0.048 A 
ATOM      4  C3  UNL d   1      -4.808  -4.630   0.381  0.00  0.00     0.023 A 
ATOM      5  C4  UNL d   1      -5.702  -3.758   1.005  0.00  0.00     0.048 A 
ATOM      6  C5  UNL d   1      -5.259  -2.949   2.054  0.00  0.00     0.003 A 
ATOM      7  I   UNL d   1      -5.463  -5.837  -1.179  0.00  0.00    -0.146 I 
ENDROOT
TORSDOF 0
ENDMDL
