MODEL 1
REMARK minimizedAffinity 14.1733007
REMARK minimizedRMSD -1
REMARK  0 active torsions:
REMARK  status: ('A' for Active; 'I' for Inactive)
ROOT
ATOM      1  C   UNL d   1      -3.327  -3.003   3.290  0.00  0.00     0.023 A 
ATOM      2  C1  UNL d   1      -2.262  -3.602   2.617  0.00  0.00     0.003 A 
ATOM      3  C2  UNL d   1      -2.508  -4.463   1.545  0.00  0.00     0.048 A 
ATOM      4  C3  UNL d   1      -3.820  -4.719   1.151  0.00  0.00     0.023 A 
ATOM      5  C4  UNL d   1      -4.889  -4.121   1.820  0.00  0.00     0.048 A 
ATOM      6  C5  UNL d   1      -4.638  -3.262   2.892  0.00  0.00     0.003 A 
ATOM      7  I   UNL d   1      -4.189  -5.999  -0.445  0.00  0.00    -0.146 I 
ENDROOT
TORSDOF 0
ENDMDL
