MODEL 1
REMARK minimizedAffinity 4.92087889
REMARK minimizedRMSD -1
REMARK  0 active torsions:
REMARK  status: ('A' for Active; 'I' for Inactive)
ROOT
ATOM      1  C   UNL d   1      -3.403  -3.081   2.979  0.00  0.00     0.023 A 
ATOM      2  C1  UNL d   1      -4.577  -2.873   2.254  0.00  0.00     0.003 A 
ATOM      3  C2  UNL d   1      -4.895  -3.710   1.182  0.00  0.00     0.048 A 
ATOM      4  C3  UNL d   1      -4.035  -4.753   0.841  0.00  0.00     0.023 A 
ATOM      5  C4  UNL d   1      -2.860  -4.966   1.564  0.00  0.00     0.048 A 
ATOM      6  C5  UNL d   1      -2.546  -4.126   2.635  0.00  0.00     0.003 A 
ATOM      7  I   UNL d   1      -4.506  -6.000  -0.754  0.00  0.00    -0.146 I 
ENDROOT
TORSDOF 0
ENDMDL
