MODEL 1
REMARK minimizedAffinity 19.1380825
REMARK minimizedRMSD -1
REMARK  0 active torsions:
REMARK  status: ('A' for Active; 'I' for Inactive)
ROOT
ATOM      1  C   UNL d   1      -1.607   5.227  -5.888  0.00  0.00     0.023 A 
ATOM      2  C1  UNL d   1      -1.876   3.860  -5.818  0.00  0.00     0.003 A 
ATOM      3  C2  UNL d   1      -2.147   3.263  -4.585  0.00  0.00     0.048 A 
ATOM      4  C3  UNL d   1      -2.149   4.038  -3.427  0.00  0.00     0.023 A 
ATOM      5  C4  UNL d   1      -1.882   5.407  -3.492  0.00  0.00     0.048 A 
ATOM      6  C5  UNL d   1      -1.610   6.000  -4.726  0.00  0.00     0.003 A 
ATOM      7  I   UNL d   1      -2.553   3.151  -1.591  0.00  0.00    -0.146 I 
ENDROOT
TORSDOF 0
ENDMDL
