MODEL 1
REMARK minimizedAffinity 12.2292891
REMARK minimizedRMSD -1
REMARK  0 active torsions:
REMARK  status: ('A' for Active; 'I' for Inactive)
ROOT
ATOM      1  C   UNL d   1      -0.318  -2.594   1.953  0.00  0.00     0.023 A 
ATOM      2  C1  UNL d   1       0.392  -1.548   2.543  0.00  0.00     0.003 A 
ATOM      3  C2  UNL d   1      -0.093  -0.938   3.702  0.00  0.00     0.048 A 
ATOM      4  C3  UNL d   1      -1.289  -1.380   4.266  0.00  0.00     0.023 A 
ATOM      5  C4  UNL d   1      -2.003  -2.427   3.680  0.00  0.00     0.048 A 
ATOM      6  C5  UNL d   1      -1.514  -3.032   2.521  0.00  0.00     0.003 A 
ATOM      7  I   UNL d   1      -2.014  -0.475   5.991  0.00  0.00    -0.146 I 
ENDROOT
TORSDOF 0
ENDMDL
