MODEL 1
REMARK minimizedAffinity 15.8881912
REMARK minimizedRMSD -1
REMARK  0 active torsions:
REMARK  status: ('A' for Active; 'I' for Inactive)
ROOT
ATOM      1  C   UNL d   1      -2.959   2.133  -3.223  0.00  0.00     0.023 A 
ATOM      2  C1  UNL d   1      -2.567   1.419  -2.091  0.00  0.00     0.003 A 
ATOM      3  C2  UNL d   1      -1.407   1.780  -1.403  0.00  0.00     0.048 A 
ATOM      4  C3  UNL d   1      -0.644   2.857  -1.852  0.00  0.00     0.023 A 
ATOM      5  C4  UNL d   1      -1.033   3.576  -2.984  0.00  0.00     0.048 A 
ATOM      6  C5  UNL d   1      -2.193   3.210  -3.669  0.00  0.00     0.003 A 
ATOM      7  I   UNL d   1       1.083   3.397  -0.829  0.00  0.00    -0.146 I 
ENDROOT
TORSDOF 0
ENDMDL
