MODEL 1
REMARK minimizedAffinity 11.9765663
REMARK minimizedRMSD -1
REMARK  0 active torsions:
REMARK  status: ('A' for Active; 'I' for Inactive)
ROOT
ATOM      1  C   UNL d   1       0.848   0.182   4.593  0.00  0.00     0.023 A 
ATOM      2  C1  UNL d   1       2.241   0.235   4.568  0.00  0.00     0.003 A 
ATOM      3  C2  UNL d   1       2.941  -0.251   3.461  0.00  0.00     0.048 A 
ATOM      4  C3  UNL d   1       2.240  -0.788   2.382  0.00  0.00     0.023 A 
ATOM      5  C4  UNL d   1       0.845  -0.843   2.402  0.00  0.00     0.048 A 
ATOM      6  C5  UNL d   1       0.150  -0.356   3.511  0.00  0.00     0.003 A 
ATOM      7  I   UNL d   1       3.278  -1.512   0.734  0.00  0.00    -0.146 I 
ENDROOT
TORSDOF 0
ENDMDL
