MODEL 1
REMARK minimizedAffinity 21.3637714
REMARK minimizedRMSD -1
REMARK  0 active torsions:
REMARK  status: ('A' for Active; 'I' for Inactive)
ROOT
ATOM      1  C   UNL d   1      -3.581  -2.415   2.575  0.00  0.00     0.023 A 
ATOM      2  C1  UNL d   1      -2.634  -3.243   1.973  0.00  0.00     0.003 A 
ATOM      3  C2  UNL d   1      -3.016  -4.115   0.951  0.00  0.00     0.048 A 
ATOM      4  C3  UNL d   1      -4.347  -4.152   0.536  0.00  0.00     0.023 A 
ATOM      5  C4  UNL d   1      -5.298  -3.324   1.134  0.00  0.00     0.048 A 
ATOM      6  C5  UNL d   1      -4.911  -2.455   2.156  0.00  0.00     0.003 A 
ATOM      7  I   UNL d   1      -4.918  -5.448  -0.986  0.00  0.00    -0.146 I 
ENDROOT
TORSDOF 0
ENDMDL
