MODEL 1
REMARK minimizedAffinity 15.3021488
REMARK minimizedRMSD -1
REMARK  0 active torsions:
REMARK  status: ('A' for Active; 'I' for Inactive)
ROOT
ATOM      1  C   UNL d   1      -0.811  -0.440   4.285  0.00  0.00     0.023 A 
ATOM      2  C1  UNL d   1      -0.740  -0.715   2.919  0.00  0.00     0.003 A 
ATOM      3  C2  UNL d   1       0.480  -0.613   2.247  0.00  0.00     0.048 A 
ATOM      4  C3  UNL d   1       1.626  -0.237   2.948  0.00  0.00     0.023 A 
ATOM      5  C4  UNL d   1       1.559   0.039   4.315  0.00  0.00     0.048 A 
ATOM      6  C5  UNL d   1       0.337  -0.064   4.982  0.00  0.00     0.003 A 
ATOM      7  I   UNL d   1       3.443  -0.084   1.951  0.00  0.00    -0.146 I 
ENDROOT
TORSDOF 0
ENDMDL
