MODEL 1
REMARK minimizedAffinity 10.2225752
REMARK minimizedRMSD -1
REMARK  0 active torsions:
REMARK  status: ('A' for Active; 'I' for Inactive)
ROOT
ATOM      1  C   UNL d   1       1.116   3.094  -0.883  0.00  0.00     0.023 A 
ATOM      2  C1  UNL d   1       0.761   3.125  -2.232  0.00  0.00     0.003 A 
ATOM      3  C2  UNL d   1      -0.547   2.824  -2.617  0.00  0.00     0.048 A 
ATOM      4  C3  UNL d   1      -1.495   2.494  -1.649  0.00  0.00     0.023 A 
ATOM      5  C4  UNL d   1      -1.144   2.463  -0.299  0.00  0.00     0.048 A 
ATOM      6  C5  UNL d   1       0.165   2.764   0.082  0.00  0.00     0.003 A 
ATOM      7  I   UNL d   1      -3.442   2.046  -2.221  0.00  0.00    -0.146 I 
ENDROOT
TORSDOF 0
ENDMDL
