MODEL 1
REMARK minimizedAffinity 7.56086779
REMARK minimizedRMSD -1
REMARK  0 active torsions:
REMARK  status: ('A' for Active; 'I' for Inactive)
ROOT
ATOM      1  C   UNL d   1      -1.175   2.275  -2.565  0.00  0.00     0.023 A 
ATOM      2  C1  UNL d   1      -2.025   1.753  -1.590  0.00  0.00     0.003 A 
ATOM      3  C2  UNL d   1      -3.105   2.508  -1.128  0.00  0.00     0.048 A 
ATOM      4  C3  UNL d   1      -3.331   3.782  -1.647  0.00  0.00     0.023 A 
ATOM      5  C4  UNL d   1      -2.484   4.308  -2.624  0.00  0.00     0.048 A 
ATOM      6  C5  UNL d   1      -1.404   3.550  -3.082  0.00  0.00     0.003 A 
ATOM      7  I   UNL d   1      -4.938   4.907  -0.961  0.00  0.00    -0.146 I 
ENDROOT
TORSDOF 0
ENDMDL
