MODEL 1
REMARK minimizedAffinity 11.5110312
REMARK minimizedRMSD -1
REMARK  0 active torsions:
REMARK  status: ('A' for Active; 'I' for Inactive)
ROOT
ATOM      1  C   UNL d   1      -2.184   2.304  -1.214  0.00  0.00     0.023 A 
ATOM      2  C1  UNL d   1      -0.991   2.217  -1.931  0.00  0.00     0.003 A 
ATOM      3  C2  UNL d   1      -0.857   2.883  -3.151  0.00  0.00     0.048 A 
ATOM      4  C3  UNL d   1      -1.921   3.634  -3.649  0.00  0.00     0.023 A 
ATOM      5  C4  UNL d   1      -3.117   3.725  -2.935  0.00  0.00     0.048 A 
ATOM      6  C5  UNL d   1      -3.246   3.057  -1.715  0.00  0.00     0.003 A 
ATOM      7  I   UNL d   1      -1.725   4.626  -5.464  0.00  0.00    -0.146 I 
ENDROOT
TORSDOF 0
ENDMDL
