MODEL 1
REMARK minimizedAffinity 15.6896229
REMARK minimizedRMSD -1
REMARK  0 active torsions:
REMARK  status: ('A' for Active; 'I' for Inactive)
ROOT
ATOM      1  C   UNL d   1      -1.564   2.933  -1.368  0.00  0.00     0.023 A 
ATOM      2  C1  UNL d   1      -0.680   2.620  -2.401  0.00  0.00     0.003 A 
ATOM      3  C2  UNL d   1      -1.076   2.776  -3.731  0.00  0.00     0.048 A 
ATOM      4  C3  UNL d   1      -2.356   3.246  -4.021  0.00  0.00     0.023 A 
ATOM      5  C4  UNL d   1      -3.244   3.561  -2.991  0.00  0.00     0.048 A 
ATOM      6  C5  UNL d   1      -2.844   3.402  -1.662  0.00  0.00     0.003 A 
ATOM      7  I   UNL d   1      -2.948   3.478  -6.000  0.00  0.00    -0.146 I 
ENDROOT
TORSDOF 0
ENDMDL
