MODEL 1
REMARK minimizedAffinity 1.9546653
REMARK minimizedRMSD -1
REMARK  0 active torsions:
REMARK  status: ('A' for Active; 'I' for Inactive)
ROOT
ATOM      1  C   UNL d   1       1.374   0.948   0.115  0.00  0.00     0.023 A 
ATOM      2  C1  UNL d   1       1.644  -0.400  -0.124  0.00  0.00     0.003 A 
ATOM      3  C2  UNL d   1       0.662  -1.363   0.115  0.00  0.00     0.048 A 
ATOM      4  C3  UNL d   1      -0.589  -0.972   0.591  0.00  0.00     0.023 A 
ATOM      5  C4  UNL d   1      -0.864   0.376   0.830  0.00  0.00     0.048 A 
ATOM      6  C5  UNL d   1       0.122   1.335   0.591  0.00  0.00     0.003 A 
ATOM      7  I   UNL d   1      -2.053  -2.404   0.947  0.00  0.00    -0.146 I 
ENDROOT
TORSDOF 0
ENDMDL
