MODEL 1
REMARK minimizedAffinity 5.31715727
REMARK minimizedRMSD -1
REMARK  0 active torsions:
REMARK  status: ('A' for Active; 'I' for Inactive)
ROOT
ATOM      1  C1  DEN d   1      -2.018   5.064  -3.843  0.00  0.00     0.130 A 
ATOM      2  C2  DEN d   1      -2.615   5.814  -4.945  0.00  0.00    -0.031 A 
ATOM      3  C3  DEN d   1      -1.583   5.996  -5.985  0.00  0.00     0.027 A 
ATOM      4  C4  DEN d   1       0.866   5.189  -6.000  0.00  0.00     0.027 A 
ATOM      5  C5  DEN d   1       1.832   4.521  -5.280  0.00  0.00    -0.003 A 
ATOM      6  C6  DEN d   1       1.595   4.021  -4.027  0.00  0.00     0.001 A 
ATOM      7  C7  DEN d   1       0.347   4.142  -3.474  0.00  0.00     0.017 A 
ATOM      8  C8  DEN d   1      -0.630   4.821  -4.190  0.00  0.00    -0.094 A 
ATOM      9  C9  DEN d   1      -0.373   5.308  -5.460  0.00  0.00    -0.072 A 
ENDROOT
TORSDOF 0
ENDMDL
