MODEL 1
REMARK minimizedAffinity 6.1890769
REMARK minimizedRMSD -1
REMARK  0 active torsions:
REMARK  status: ('A' for Active; 'I' for Inactive)
ROOT
ATOM      1  C1  DEN d   1       1.520   4.489  -3.592  0.00  0.00     0.130 A 
ATOM      2  C2  DEN d   1       2.239   4.107  -4.804  0.00  0.00    -0.031 A 
ATOM      3  C3  DEN d   1       1.387   4.440  -5.964  0.00  0.00     0.027 A 
ATOM      4  C4  DEN d   1      -0.959   5.510  -5.999  0.00  0.00     0.027 A 
ATOM      5  C5  DEN d   1      -1.982   5.999  -5.217  0.00  0.00    -0.003 A 
ATOM      6  C6  DEN d   1      -1.924   5.988  -3.848  0.00  0.00     0.001 A 
ATOM      7  C7  DEN d   1      -0.800   5.519  -3.221  0.00  0.00     0.017 A 
ATOM      8  C8  DEN d   1       0.232   5.017  -4.003  0.00  0.00    -0.094 A 
ATOM      9  C9  DEN d   1       0.159   5.049  -5.385  0.00  0.00    -0.072 A 
ENDROOT
TORSDOF 0
ENDMDL
