MODEL 1
REMARK minimizedAffinity 5.99565554
REMARK minimizedRMSD -1
REMARK  0 active torsions:
REMARK  status: ('A' for Active; 'I' for Inactive)
ROOT
ATOM      1  C1  DEN d   1       0.947   4.504  -2.080  0.00  0.00     0.130 A 
ATOM      2  C2  DEN d   1       2.115   3.650  -2.275  0.00  0.00    -0.031 A 
ATOM      3  C3  DEN d   1       2.260   3.397  -3.723  0.00  0.00     0.027 A 
ATOM      4  C4  DEN d   1       0.798   4.244  -5.671  0.00  0.00     0.027 A 
ATOM      5  C5  DEN d   1      -0.313   4.989  -6.000  0.00  0.00    -0.003 A 
ATOM      6  C6  DEN d   1      -1.095   5.591  -5.050  0.00  0.00     0.001 A 
ATOM      7  C7  DEN d   1      -0.751   5.497  -3.728  0.00  0.00     0.017 A 
ATOM      8  C8  DEN d   1       0.364   4.741  -3.388  0.00  0.00    -0.094 A 
ATOM      9  C9  DEN d   1       1.148   4.150  -4.364  0.00  0.00    -0.072 A 
ENDROOT
TORSDOF 0
ENDMDL
