MODEL 1
REMARK minimizedAffinity 12.611948
REMARK minimizedRMSD -1
REMARK  0 active torsions:
REMARK  status: ('A' for Active; 'I' for Inactive)
ROOT
ATOM      1  C1  DEN d   1      -3.703  -1.926  -4.821  0.00  0.00     0.130 A 
ATOM      2  C2  DEN d   1      -4.883  -1.081  -4.986  0.00  0.00    -0.031 A 
ATOM      3  C3  DEN d   1      -5.990  -1.932  -5.468  0.00  0.00     0.027 A 
ATOM      4  C4  DEN d   1      -5.992  -4.463  -5.968  0.00  0.00     0.027 A 
ATOM      5  C5  DEN d   1      -5.220  -5.603  -5.989  0.00  0.00    -0.003 A 
ATOM      6  C6  DEN d   1      -3.891  -5.592  -5.658  0.00  0.00     0.001 A 
ATOM      7  C7  DEN d   1      -3.303  -4.424  -5.247  0.00  0.00     0.017 A 
ATOM      8  C8  DEN d   1      -4.073  -3.269  -5.231  0.00  0.00    -0.094 A 
ATOM      9  C9  DEN d   1      -5.418  -3.303  -5.557  0.00  0.00    -0.072 A 
ENDROOT
TORSDOF 0
ENDMDL
