MODEL 1
REMARK minimizedAffinity 14.9434175
REMARK minimizedRMSD -1
REMARK  0 active torsions:
REMARK  status: ('A' for Active; 'I' for Inactive)
ROOT
ATOM      1  C1  DEN d   1       2.051   3.667   1.067  0.00  0.00     0.130 A 
ATOM      2  C2  DEN d   1       2.238   5.115   1.110  0.00  0.00    -0.031 A 
ATOM      3  C3  DEN d   1       2.203   5.621  -0.277  0.00  0.00     0.027 A 
ATOM      4  C4  DEN d   1       1.876   4.310  -2.475  0.00  0.00     0.027 A 
ATOM      5  C5  DEN d   1       1.689   3.058  -3.018  0.00  0.00    -0.003 A 
ATOM      6  C6  DEN d   1       1.645   1.927  -2.247  0.00  0.00     0.001 A 
ATOM      7  C7  DEN d   1       1.743   2.030  -0.884  0.00  0.00     0.017 A 
ATOM      8  C8  DEN d   1       1.939   3.288  -0.330  0.00  0.00    -0.094 A 
ATOM      9  C9  DEN d   1       1.969   4.421  -1.125  0.00  0.00    -0.072 A 
ENDROOT
TORSDOF 0
ENDMDL
