MODEL 1
REMARK minimizedAffinity 15.2018089
REMARK minimizedRMSD -1
REMARK  0 active torsions:
REMARK  status: ('A' for Active; 'I' for Inactive)
ROOT
ATOM      1  C1  DEN d   1      -1.894   5.969  -5.890  0.00  0.00     0.130 A 
ATOM      2  C2  DEN d   1      -2.880   5.723  -4.842  0.00  0.00    -0.031 A 
ATOM      3  C3  DEN d   1      -2.172   5.169  -3.670  0.00  0.00     0.027 A 
ATOM      4  C4  DEN d   1       0.343   4.677  -3.377  0.00  0.00     0.027 A 
ATOM      5  C5  DEN d   1       1.573   4.712  -3.995  0.00  0.00    -0.003 A 
ATOM      6  C6  DEN d   1       1.727   5.132  -5.290  0.00  0.00     0.001 A 
ATOM      7  C7  DEN d   1       0.640   5.578  -5.993  0.00  0.00     0.017 A 
ATOM      8  C8  DEN d   1      -0.605   5.540  -5.379  0.00  0.00    -0.094 A 
ATOM      9  C9  DEN d   1      -0.739   5.123  -4.065  0.00  0.00    -0.072 A 
ENDROOT
TORSDOF 0
ENDMDL
