MODEL 1
REMARK minimizedAffinity 8.9803791
REMARK minimizedRMSD -1
REMARK  0 active torsions:
REMARK  status: ('A' for Active; 'I' for Inactive)
ROOT
ATOM      1  C1  DEN d   1      -2.726  -4.104  -0.003  0.00  0.00     0.130 A 
ATOM      2  C2  DEN d   1      -3.763  -3.382   0.730  0.00  0.00    -0.031 A 
ATOM      3  C3  DEN d   1      -3.103  -2.362   1.569  0.00  0.00     0.027 A 
ATOM      4  C4  DEN d   1      -0.590  -1.830   1.800  0.00  0.00     0.027 A 
ATOM      5  C5  DEN d   1       0.675  -2.184   1.385  0.00  0.00    -0.003 A 
ATOM      6  C6  DEN d   1       0.896  -3.216   0.512  0.00  0.00     0.001 A 
ATOM      7  C7  DEN d   1      -0.168  -3.902  -0.010  0.00  0.00     0.017 A 
ATOM      8  C8  DEN d   1      -1.446  -3.556   0.409  0.00  0.00    -0.094 A 
ATOM      9  C9  DEN d   1      -1.649  -2.502   1.283  0.00  0.00    -0.072 A 
ENDROOT
TORSDOF 0
ENDMDL
