MODEL 1
REMARK minimizedAffinity 14.0183706
REMARK minimizedRMSD -1
REMARK  0 active torsions:
REMARK  status: ('A' for Active; 'I' for Inactive)
ROOT
ATOM      1  C1  DEN d   1       2.541  -0.099   1.993  0.00  0.00     0.130 A 
ATOM      2  C2  DEN d   1       3.073  -1.432   1.721  0.00  0.00    -0.031 A 
ATOM      3  C3  DEN d   1       4.528  -1.403   1.974  0.00  0.00     0.027 A 
ATOM      4  C4  DEN d   1       6.000   0.564   2.759  0.00  0.00     0.027 A 
ATOM      5  C5  DEN d   1       6.000   1.897   3.108  0.00  0.00    -0.003 A 
ATOM      6  C6  DEN d   1       4.862   2.659   3.077  0.00  0.00     0.001 A 
ATOM      7  C7  DEN d   1       3.668   2.084   2.733  0.00  0.00     0.017 A 
ATOM      8  C8  DEN d   1       3.661   0.743   2.372  0.00  0.00    -0.094 A 
ATOM      9  C9  DEN d   1       4.819  -0.014   2.421  0.00  0.00    -0.072 A 
ENDROOT
TORSDOF 0
ENDMDL
