MODEL 1
REMARK minimizedAffinity 5.23418093
REMARK minimizedRMSD -1
REMARK  0 active torsions:
REMARK  status: ('A' for Active; 'I' for Inactive)
ROOT
ATOM      1  C1  DEN d   1      -2.002  -2.042   0.724  0.00  0.00     0.130 A 
ATOM      2  C2  DEN d   1      -0.951  -1.815   1.713  0.00  0.00    -0.031 A 
ATOM      3  C3  DEN d   1      -1.159  -0.476   2.301  0.00  0.00     0.027 A 
ATOM      4  C4  DEN d   1      -2.998   1.256   1.781  0.00  0.00     0.027 A 
ATOM      5  C5  DEN d   1      -4.106   1.519   1.007  0.00  0.00    -0.003 A 
ATOM      6  C6  DEN d   1      -4.567   0.635   0.067  0.00  0.00     0.001 A 
ATOM      7  C7  DEN d   1      -3.943  -0.574  -0.090  0.00  0.00     0.017 A 
ATOM      8  C8  DEN d   1      -2.820  -0.843   0.682  0.00  0.00    -0.094 A 
ATOM      9  C9  DEN d   1      -2.378   0.058   1.635  0.00  0.00    -0.072 A 
ENDROOT
TORSDOF 0
ENDMDL
