MODEL 1
REMARK minimizedAffinity 3.29303074
REMARK minimizedRMSD -1
REMARK  0 active torsions:
REMARK  status: ('A' for Active; 'I' for Inactive)
ROOT
ATOM      1  C1  DEN d   1      -4.100   4.966  -1.934  0.00  0.00     0.130 A 
ATOM      2  C2  DEN d   1      -5.453   5.463  -1.697  0.00  0.00    -0.031 A 
ATOM      3  C3  DEN d   1      -5.991   5.953  -2.982  0.00  0.00     0.027 A 
ATOM      4  C4  DEN d   1      -4.869   5.987  -5.304  0.00  0.00     0.027 A 
ATOM      5  C5  DEN d   1      -3.720   5.682  -6.000  0.00  0.00    -0.003 A 
ATOM      6  C6  DEN d   1      -2.614   5.153  -5.388  0.00  0.00     0.001 A 
ATOM      7  C7  DEN d   1      -2.650   4.871  -4.048  0.00  0.00     0.017 A 
ATOM      8  C8  DEN d   1      -3.802   5.182  -3.338  0.00  0.00    -0.094 A 
ATOM      9  C9  DEN d   1      -4.914   5.705  -3.977  0.00  0.00    -0.072 A 
ENDROOT
TORSDOF 0
ENDMDL
