MODEL 1
REMARK minimizedAffinity 16.7358227
REMARK minimizedRMSD -1
REMARK  0 active torsions:
REMARK  status: ('A' for Active; 'I' for Inactive)
ROOT
ATOM      1  C1  DEN d   1      -1.440  -2.320   0.773  0.00  0.00     0.130 A 
ATOM      2  C2  DEN d   1      -0.816  -3.585   0.393  0.00  0.00    -0.031 A 
ATOM      3  C3  DEN d   1       0.083  -3.998   1.489  0.00  0.00     0.027 A 
ATOM      4  C4  DEN d   1       0.564  -2.812   3.728  0.00  0.00     0.027 A 
ATOM      5  C5  DEN d   1       0.279  -1.704   4.495  0.00  0.00    -0.003 A 
ATOM      6  C6  DEN d   1      -0.565  -0.715   4.065  0.00  0.00     0.001 A 
ATOM      7  C7  DEN d   1      -1.190  -0.837   2.852  0.00  0.00     0.017 A 
ATOM      8  C8  DEN d   1      -0.903  -1.947   2.070  0.00  0.00    -0.094 A 
ATOM      9  C9  DEN d   1      -0.056  -2.942   2.528  0.00  0.00    -0.072 A 
ENDROOT
TORSDOF 0
ENDMDL
