MODEL 1
REMARK minimizedAffinity 3.85445046
REMARK minimizedRMSD -1
REMARK  0 active torsions:
REMARK  status: ('A' for Active; 'I' for Inactive)
ROOT
ATOM      1  C1  DEN d   1      -4.405  -5.999  -5.999  0.00  0.00     0.130 A 
ATOM      2  C2  DEN d   1      -5.387  -5.187  -5.285  0.00  0.00    -0.031 A 
ATOM      3  C3  DEN d   1      -4.655  -4.208  -4.457  0.00  0.00     0.027 A 
ATOM      4  C4  DEN d   1      -2.109  -3.870  -4.215  0.00  0.00     0.027 A 
ATOM      5  C5  DEN d   1      -0.873  -4.328  -4.614  0.00  0.00    -0.003 A 
ATOM      6  C6  DEN d   1      -0.728  -5.388  -5.469  0.00  0.00     0.001 A 
ATOM      7  C7  DEN d   1      -1.840  -5.997  -5.989  0.00  0.00     0.017 A 
ATOM      8  C8  DEN d   1      -3.089  -5.546  -5.586  0.00  0.00    -0.094 A 
ATOM      9  C9  DEN d   1      -3.215  -4.465  -4.729  0.00  0.00    -0.072 A 
ENDROOT
TORSDOF 0
ENDMDL
