MODEL 1
REMARK minimizedAffinity 12.5142527
REMARK minimizedRMSD -1
REMARK  0 active torsions:
REMARK  status: ('A' for Active; 'I' for Inactive)
ROOT
ATOM      1  C1  DEN d   1      -2.367  -1.857   0.731  0.00  0.00     0.130 A 
ATOM      2  C2  DEN d   1      -1.344  -1.716   1.764  0.00  0.00    -0.031 A 
ATOM      3  C3  DEN d   1      -1.344  -0.311   2.218  0.00  0.00     0.027 A 
ATOM      4  C4  DEN d   1      -2.825   1.649   1.431  0.00  0.00     0.027 A 
ATOM      5  C5  DEN d   1      -3.830   2.019   0.566  0.00  0.00    -0.003 A 
ATOM      6  C6  DEN d   1      -4.390   1.138  -0.322  0.00  0.00     0.001 A 
ATOM      7  C7  DEN d   1      -3.980  -0.168  -0.332  0.00  0.00     0.017 A 
ATOM      8  C8  DEN d   1      -2.961  -0.547   0.532  0.00  0.00    -0.094 A 
ATOM      9  C9  DEN d   1      -2.416   0.355   1.430  0.00  0.00    -0.072 A 
ENDROOT
TORSDOF 0
ENDMDL
