MODEL 1
REMARK minimizedAffinity 5.31788111
REMARK minimizedRMSD -1
REMARK  0 active torsions:
REMARK  status: ('A' for Active; 'I' for Inactive)
ROOT
ATOM      1  C1  DEN d   1      -1.790  -1.555   1.095  0.00  0.00     0.130 A 
ATOM      2  C2  DEN d   1      -1.787  -1.125   2.490  0.00  0.00    -0.031 A 
ATOM      3  C3  DEN d   1      -2.595   0.107   2.589  0.00  0.00     0.027 A 
ATOM      4  C4  DEN d   1      -3.847   1.381   0.729  0.00  0.00     0.027 A 
ATOM      5  C5  DEN d   1      -4.133   1.405  -0.618  0.00  0.00    -0.003 A 
ATOM      6  C6  DEN d   1      -3.633   0.472  -1.488  0.00  0.00     0.001 A 
ATOM      7  C7  DEN d   1      -2.858  -0.553  -1.012  0.00  0.00     0.017 A 
ATOM      8  C8  DEN d   1      -2.560  -0.580   0.344  0.00  0.00    -0.094 A 
ATOM      9  C9  DEN d   1      -3.085   0.366   1.209  0.00  0.00    -0.072 A 
ENDROOT
TORSDOF 0
ENDMDL
