MODEL 1
REMARK minimizedAffinity 7.33959007
REMARK minimizedRMSD -1
REMARK  0 active torsions:
REMARK  status: ('A' for Active; 'I' for Inactive)
ROOT
ATOM      1  C2' OXE d   1      -3.793  -1.721  -3.248  0.00  0.00     0.078 C 
ATOM      2  C1' OXE d   1      -5.665  -1.357  -1.189  0.00  0.00     0.078 C 
ATOM      3  C1  OXE d   1      -5.003  -0.129  -1.762  0.00  0.00    -0.078 A 
ATOM      4  C2  OXE d   1      -4.054  -0.320  -2.737  0.00  0.00    -0.078 A 
ATOM      5  C3  OXE d   1      -3.452   0.781  -3.338  0.00  0.00     0.003 A 
ATOM      6  C4  OXE d   1      -3.692   2.073  -2.853  0.00  0.00    -0.002 A 
ATOM      7  C5  OXE d   1      -4.625   2.286  -1.834  0.00  0.00    -0.002 A 
ATOM      8  C6  OXE d   1      -5.320   1.202  -1.308  0.00  0.00     0.003 A 
ENDROOT
TORSDOF 0
ENDMDL
