MODEL 1
REMARK minimizedAffinity 12.360877
REMARK minimizedRMSD -1
REMARK  0 active torsions:
REMARK  status: ('A' for Active; 'I' for Inactive)
ROOT
ATOM      1  C2' OXE d   1       2.745  -0.485   0.540  0.00  0.00     0.078 C 
ATOM      2  C1' OXE d   1       1.769   1.251   2.518  0.00  0.00     0.078 C 
ATOM      3  C1  OXE d   1       1.488  -0.222   2.675  0.00  0.00    -0.078 A 
ATOM      4  C2  OXE d   1       1.929  -1.059   1.678  0.00  0.00    -0.078 A 
ATOM      5  C3  OXE d   1       1.744  -2.433   1.800  0.00  0.00     0.003 A 
ATOM      6  C4  OXE d   1       0.980  -2.955   2.851  0.00  0.00    -0.002 A 
ATOM      7  C5  OXE d   1       0.488  -2.116   3.856  0.00  0.00    -0.002 A 
ATOM      8  C6  OXE d   1       0.769  -0.755   3.805  0.00  0.00     0.003 A 
ENDROOT
TORSDOF 0
ENDMDL
