MODEL 1
REMARK minimizedAffinity 10.9485598
REMARK minimizedRMSD -1
REMARK  0 active torsions:
REMARK  status: ('A' for Active; 'I' for Inactive)
ROOT
ATOM      1  C2' OXE d   1       0.290  -1.514   4.431  0.00  0.00     0.078 C 
ATOM      2  C1' OXE d   1       0.603   0.872   2.986  0.00  0.00     0.078 C 
ATOM      3  C1  OXE d   1       1.385  -0.334   2.530  0.00  0.00    -0.078 A 
ATOM      4  C2  OXE d   1       1.262  -1.485   3.271  0.00  0.00    -0.078 A 
ATOM      5  C3  OXE d   1       1.919  -2.642   2.863  0.00  0.00     0.003 A 
ATOM      6  C4  OXE d   1       2.824  -2.604   1.795  0.00  0.00    -0.002 A 
ATOM      7  C5  OXE d   1       2.995  -1.431   1.051  0.00  0.00    -0.002 A 
ATOM      8  C6  OXE d   1       2.253  -0.302   1.379  0.00  0.00     0.003 A 
ENDROOT
TORSDOF 0
ENDMDL
