MODEL 1
REMARK minimizedAffinity 5.46349001
REMARK minimizedRMSD -1
REMARK  0 active torsions:
REMARK  status: ('A' for Active; 'I' for Inactive)
ROOT
ATOM      1  C2' OXE d   1       1.226  -1.937   4.079  0.00  0.00     0.078 C 
ATOM      2  C1' OXE d   1      -0.571  -1.514   1.964  0.00  0.00     0.078 C 
ATOM      3  C1  OXE d   1       0.905  -1.432   1.661  0.00  0.00    -0.078 A 
ATOM      4  C2  OXE d   1       1.776  -1.594   2.712  0.00  0.00    -0.078 A 
ATOM      5  C3  OXE d   1       3.148  -1.583   2.477  0.00  0.00     0.003 A 
ATOM      6  C4  OXE d   1       3.648  -1.255   1.211  0.00  0.00    -0.002 A 
ATOM      7  C5  OXE d   1       2.778  -1.047   0.136  0.00  0.00    -0.002 A 
ATOM      8  C6  OXE d   1       1.407  -1.173   0.335  0.00  0.00     0.003 A 
ENDROOT
TORSDOF 0
ENDMDL
