MODEL 1
REMARK minimizedAffinity 4.11754227
REMARK minimizedRMSD -1
REMARK  0 active torsions:
REMARK  status: ('A' for Active; 'I' for Inactive)
ROOT
ATOM      1  C2' OXE d   1       0.587   1.638   1.462  0.00  0.00     0.078 C 
ATOM      2  C1' OXE d   1       2.956   0.162   1.762  0.00  0.00     0.078 C 
ATOM      3  C1  OXE d   1       1.700  -0.590   1.400  0.00  0.00    -0.078 A 
ATOM      4  C2  OXE d   1       0.536   0.134   1.301  0.00  0.00    -0.078 A 
ATOM      5  C3  OXE d   1      -0.641  -0.502   0.917  0.00  0.00     0.003 A 
ATOM      6  C4  OXE d   1      -0.682  -1.895   0.779  0.00  0.00    -0.002 A 
ATOM      7  C5  OXE d   1       0.484  -2.656   0.915  0.00  0.00    -0.002 A 
ATOM      8  C6  OXE d   1       1.689  -2.015   1.182  0.00  0.00     0.003 A 
ENDROOT
TORSDOF 0
ENDMDL
