MODEL 1
REMARK minimizedAffinity 1.39641857
REMARK minimizedRMSD -1
REMARK  0 active torsions:
REMARK  status: ('A' for Active; 'I' for Inactive)
ROOT
ATOM      1  C   UNL d   1      -4.877  -2.498  -4.182  0.00  0.00     0.172 C 
ATOM      2  N   UNL d   1      -5.128  -3.810  -4.732  0.00  0.00    -0.070 N 
ATOM      3  C1  UNL d   1      -4.540  -4.975  -4.317  0.00  0.00    -0.004 A 
ATOM      4  C2  UNL d   1      -5.043  -6.000  -5.088  0.00  0.00    -0.047 A 
ATOM      5  C3  UNL d   1      -5.965  -5.431  -5.999  0.00  0.00    -0.047 A 
ATOM      6  C4  UNL d   1      -5.997  -4.074  -5.756  0.00  0.00    -0.004 A 
ENDROOT
TORSDOF 0
ENDMDL
