MODEL 1
REMARK minimizedAffinity 0.255593538
REMARK minimizedRMSD -1
REMARK  0 active torsions:
REMARK  status: ('A' for Active; 'I' for Inactive)
ROOT
ATOM      1  C   UNL d   1      -3.847  -0.372  -5.241  0.00  0.00     0.172 C 
ATOM      2  N   UNL d   1      -3.936   0.895  -4.554  0.00  0.00    -0.070 N 
ATOM      3  C1  UNL d   1      -3.580   1.123  -3.251  0.00  0.00    -0.004 A 
ATOM      4  C2  UNL d   1      -3.814   2.453  -2.976  0.00  0.00    -0.047 A 
ATOM      5  C3  UNL d   1      -4.330   3.044  -4.154  0.00  0.00    -0.047 A 
ATOM      6  C4  UNL d   1      -4.395   2.057  -5.115  0.00  0.00    -0.004 A 
ENDROOT
TORSDOF 0
ENDMDL
