MODEL 1
REMARK minimizedAffinity 1.36446881
REMARK minimizedRMSD -1
REMARK  0 active torsions:
REMARK  status: ('A' for Active; 'I' for Inactive)
ROOT
ATOM      1  C   UNL d   1      -4.517  -2.393  -5.042  0.00  0.00     0.172 C 
ATOM      2  N   UNL d   1      -4.877  -3.768  -5.298  0.00  0.00    -0.070 N 
ATOM      3  C1  UNL d   1      -5.999  -4.189  -5.961  0.00  0.00    -0.004 A 
ATOM      4  C2  UNL d   1      -5.976  -5.567  -5.995  0.00  0.00    -0.047 A 
ATOM      5  C3  UNL d   1      -4.801  -5.988  -5.329  0.00  0.00    -0.047 A 
ATOM      6  C4  UNL d   1      -4.139  -4.854  -4.908  0.00  0.00    -0.004 A 
ENDROOT
TORSDOF 0
ENDMDL
