MODEL 1
REMARK minimizedAffinity -0.894652188
REMARK minimizedRMSD -1
REMARK  0 active torsions:
REMARK  status: ('A' for Active; 'I' for Inactive)
ROOT
ATOM      1  C   UNL d   1       5.259  -5.998  -5.020  0.00  0.00     0.172 C 
ATOM      2  N   UNL d   1       4.248  -5.882  -3.996  0.00  0.00    -0.070 N 
ATOM      3  C1  UNL d   1       4.479  -5.639  -2.668  0.00  0.00    -0.004 A 
ATOM      4  C2  UNL d   1       3.260  -5.601  -2.027  0.00  0.00    -0.047 A 
ATOM      5  C3  UNL d   1       2.261  -5.829  -3.003  0.00  0.00    -0.047 A 
ATOM      6  C4  UNL d   1       2.900  -5.999  -4.213  0.00  0.00    -0.004 A 
ENDROOT
TORSDOF 0
ENDMDL
