MODEL 1
REMARK minimizedAffinity 8.20871735
REMARK minimizedRMSD -1
REMARK  0 active torsions:
REMARK  status: ('A' for Active; 'I' for Inactive)
ROOT
ATOM      1  C   UNL d   1      -4.286  -1.899  -5.764  0.00  0.00     0.172 C 
ATOM      2  N   UNL d   1      -4.708  -3.279  -5.827  0.00  0.00    -0.070 N 
ATOM      3  C1  UNL d   1      -6.000  -3.724  -5.733  0.00  0.00    -0.004 A 
ATOM      4  C2  UNL d   1      -5.982  -5.098  -5.839  0.00  0.00    -0.047 A 
ATOM      5  C3  UNL d   1      -4.632  -5.492  -6.000  0.00  0.00    -0.047 A 
ATOM      6  C4  UNL d   1      -3.865  -4.346  -5.989  0.00  0.00    -0.004 A 
ENDROOT
TORSDOF 0
ENDMDL
