MODEL 1
REMARK minimizedAffinity 1.8638252
REMARK minimizedRMSD -1
REMARK  0 active torsions:
REMARK  status: ('A' for Active; 'I' for Inactive)
ROOT
ATOM      1  C   UNL d   1       5.244  -3.129   3.561  0.00  0.00     0.172 C 
ATOM      2  N   UNL d   1       3.824  -2.939   3.747  0.00  0.00    -0.070 N 
ATOM      3  C1  UNL d   1       3.065  -3.506   4.735  0.00  0.00    -0.004 A 
ATOM      4  C2  UNL d   1       1.766  -3.078   4.568  0.00  0.00    -0.047 A 
ATOM      5  C3  UNL d   1       1.743  -2.224   3.439  0.00  0.00    -0.047 A 
ATOM      6  C4  UNL d   1       3.031  -2.156   2.950  0.00  0.00    -0.004 A 
ENDROOT
TORSDOF 0
ENDMDL
