MODEL 1
REMARK minimizedAffinity -0.521588624
REMARK minimizedRMSD -1
REMARK  0 active torsions:
REMARK  status: ('A' for Active; 'I' for Inactive)
ROOT
ATOM      1  C   UNL d   1      -4.646  -2.389  -5.873  0.00  0.00     0.172 C 
ATOM      2  N   UNL d   1      -4.859  -3.807  -5.699  0.00  0.00    -0.070 N 
ATOM      3  C1  UNL d   1      -6.000  -4.388  -5.213  0.00  0.00    -0.004 A 
ATOM      4  C2  UNL d   1      -5.806  -5.753  -5.204  0.00  0.00    -0.047 A 
ATOM      5  C3  UNL d   1      -4.504  -5.999  -5.700  0.00  0.00    -0.047 A 
ATOM      6  C4  UNL d   1      -3.940  -4.777  -5.999  0.00  0.00    -0.004 A 
ENDROOT
TORSDOF 0
ENDMDL
