MODEL 1
REMARK minimizedAffinity 2.28423643
REMARK minimizedRMSD -1
REMARK  0 active torsions:
REMARK  status: ('A' for Active; 'I' for Inactive)
ROOT
ATOM      1  C   UNL d   1      -5.044  -2.364  -4.527  0.00  0.00     0.172 C 
ATOM      2  N   UNL d   1      -5.287  -3.743  -4.880  0.00  0.00    -0.070 N 
ATOM      3  C1  UNL d   1      -4.883  -4.834  -4.159  0.00  0.00    -0.004 A 
ATOM      4  C2  UNL d   1      -5.308  -5.962  -4.827  0.00  0.00    -0.047 A 
ATOM      5  C3  UNL d   1      -5.990  -5.534  -5.991  0.00  0.00    -0.047 A 
ATOM      6  C4  UNL d   1      -5.962  -4.155  -5.999  0.00  0.00    -0.004 A 
ENDROOT
TORSDOF 0
ENDMDL
