MODEL 1
REMARK minimizedAffinity 1.78784239
REMARK minimizedRMSD -1
REMARK  0 active torsions:
REMARK  status: ('A' for Active; 'I' for Inactive)
ROOT
ATOM      1  O1  BZF d   1      -3.576   5.974   5.203  0.00  0.00    -0.204 OA
ATOM      2  C2  BZF d   1      -4.737   5.957   5.952  0.00  0.00     0.174 A 
ATOM      3  C3  BZF d   1      -5.822   5.996   5.153  0.00  0.00    -0.012 A 
ATOM      4  C3A BZF d   1      -5.309   5.947   3.819  0.00  0.00    -0.107 A 
ATOM      5  C4  BZF d   1      -5.898   5.939   2.586  0.00  0.00     0.055 A 
ATOM      6  C5  BZF d   1      -5.111   5.961   1.479  0.00  0.00    -0.016 A 
ATOM      7  C6  BZF d   1      -3.735   5.995   1.566  0.00  0.00     0.022 A 
ATOM      8  C7  BZF d   1      -3.105   5.999   2.767  0.00  0.00     0.029 A 
ATOM      9  C7A BZF d   1      -3.897   5.944   3.888  0.00  0.00     0.058 A 
ENDROOT
TORSDOF 0
ENDMDL
