MODEL 1
REMARK minimizedAffinity 6.35778046
REMARK minimizedRMSD -1
REMARK  0 active torsions:
REMARK  status: ('A' for Active; 'I' for Inactive)
ROOT
ATOM      1  O1  BZF d   1      -5.967   3.816   4.968  0.00  0.00    -0.204 OA
ATOM      2  C2  BZF d   1      -5.556   4.643   5.995  0.00  0.00     0.174 A 
ATOM      3  C3  BZF d   1      -4.685   5.569   5.544  0.00  0.00    -0.012 A 
ATOM      4  C3A BZF d   1      -4.614   5.361   4.130  0.00  0.00    -0.107 A 
ATOM      5  C4  BZF d   1      -3.928   5.979   3.124  0.00  0.00     0.055 A 
ATOM      6  C5  BZF d   1      -4.022   5.487   1.861  0.00  0.00    -0.016 A 
ATOM      7  C6  BZF d   1      -4.787   4.376   1.570  0.00  0.00     0.022 A 
ATOM      8  C7  BZF d   1      -5.489   3.732   2.534  0.00  0.00     0.029 A 
ATOM      9  C7A BZF d   1      -5.423   4.248   3.805  0.00  0.00     0.058 A 
ENDROOT
TORSDOF 0
ENDMDL
