MODEL 1
REMARK minimizedAffinity 0.00448011188
REMARK minimizedRMSD -1
REMARK  0 active torsions:
REMARK  status: ('A' for Active; 'I' for Inactive)
ROOT
ATOM      1  O1  BZF d   1      -0.886  -1.575   4.431  0.00  0.00    -0.204 OA
ATOM      2  C2  BZF d   1       0.152  -0.670   4.321  0.00  0.00     0.174 A 
ATOM      3  C3  BZF d   1       1.298  -1.196   4.800  0.00  0.00    -0.012 A 
ATOM      4  C3A BZF d   1       0.975  -2.544   5.153  0.00  0.00    -0.107 A 
ATOM      5  C4  BZF d   1       1.701  -3.579   5.669  0.00  0.00     0.055 A 
ATOM      6  C5  BZF d   1       1.070  -4.745   5.966  0.00  0.00    -0.016 A 
ATOM      7  C6  BZF d   1      -0.285  -4.909   5.765  0.00  0.00     0.022 A 
ATOM      8  C7  BZF d   1      -1.046  -3.913   5.250  0.00  0.00     0.029 A 
ATOM      9  C7A BZF d   1      -0.405  -2.744   4.918  0.00  0.00     0.058 A 
ENDROOT
TORSDOF 0
ENDMDL
