MODEL 1
REMARK minimizedAffinity -1.59528017
REMARK minimizedRMSD -1
REMARK  0 active torsions:
REMARK  status: ('A' for Active; 'I' for Inactive)
ROOT
ATOM      1  O1  BZF d   1      -4.247   5.243   1.495  0.00  0.00    -0.204 OA
ATOM      2  C2  BZF d   1      -2.872   5.362   1.434  0.00  0.00     0.174 A 
ATOM      3  C3  BZF d   1      -2.368   5.715   2.635  0.00  0.00    -0.012 A 
ATOM      4  C3A BZF d   1      -3.490   5.733   3.523  0.00  0.00    -0.107 A 
ATOM      5  C4  BZF d   1      -3.629   5.996   4.855  0.00  0.00     0.055 A 
ATOM      6  C5  BZF d   1      -4.873   6.000   5.402  0.00  0.00    -0.016 A 
ATOM      7  C6  BZF d   1      -5.999   5.751   4.646  0.00  0.00     0.022 A 
ATOM      8  C7  BZF d   1      -5.912   5.480   3.321  0.00  0.00     0.029 A 
ATOM      9  C7A BZF d   1      -4.653   5.442   2.772  0.00  0.00     0.058 A 
ENDROOT
TORSDOF 0
ENDMDL
