MODEL 1
REMARK minimizedAffinity 5.36343479
REMARK minimizedRMSD -1
REMARK  0 active torsions:
REMARK  status: ('A' for Active; 'I' for Inactive)
ROOT
ATOM      1  O1  BZF d   1      -1.990   5.880   1.893  0.00  0.00    -0.204 OA
ATOM      2  C2  BZF d   1      -1.696   5.999   3.237  0.00  0.00     0.174 A 
ATOM      3  C3  BZF d   1      -2.824   5.998   3.976  0.00  0.00    -0.012 A 
ATOM      4  C3A BZF d   1      -3.885   5.777   3.042  0.00  0.00    -0.107 A 
ATOM      5  C4  BZF d   1      -5.239   5.658   3.170  0.00  0.00     0.055 A 
ATOM      6  C5  BZF d   1      -5.999   5.520   2.052  0.00  0.00    -0.016 A 
ATOM      7  C6  BZF d   1      -5.439   5.502   0.791  0.00  0.00     0.022 A 
ATOM      8  C7  BZF d   1      -4.100   5.612   0.614  0.00  0.00     0.029 A 
ATOM      9  C7A BZF d   1      -3.327   5.718   1.744  0.00  0.00     0.058 A 
ENDROOT
TORSDOF 0
ENDMDL
