MODEL 1
REMARK minimizedAffinity -3.70144987
REMARK minimizedRMSD -1
REMARK  0 active torsions:
REMARK  status: ('A' for Active; 'I' for Inactive)
ROOT
ATOM      1  O1  BZF d   1      -3.847   5.885   5.601  0.00  0.00    -0.204 OA
ATOM      2  C2  BZF d   1      -5.170   5.876   6.000  0.00  0.00     0.174 A 
ATOM      3  C3  BZF d   1      -5.992   5.960   4.934  0.00  0.00    -0.012 A 
ATOM      4  C3A BZF d   1      -5.130   5.932   3.792  0.00  0.00    -0.107 A 
ATOM      5  C4  BZF d   1      -5.354   5.969   2.445  0.00  0.00     0.055 A 
ATOM      6  C5  BZF d   1      -4.291   5.999   1.599  0.00  0.00    -0.016 A 
ATOM      7  C6  BZF d   1      -2.993   6.000   2.064  0.00  0.00     0.022 A 
ATOM      8  C7  BZF d   1      -2.720   5.960   3.391  0.00  0.00     0.029 A 
ATOM      9  C7A BZF d   1      -3.792   5.895   4.248  0.00  0.00     0.058 A 
ENDROOT
TORSDOF 0
ENDMDL
