MODEL 1
REMARK minimizedAffinity 1.07326472
REMARK minimizedRMSD -1
REMARK  0 active torsions:
REMARK  status: ('A' for Active; 'I' for Inactive)
ROOT
ATOM      1  O1  BZF d   1      -2.610   5.929   2.913  0.00  0.00    -0.204 OA
ATOM      2  C2  BZF d   1      -3.153   5.862   1.644  0.00  0.00     0.174 A 
ATOM      3  C3  BZF d   1      -4.497   5.770   1.702  0.00  0.00    -0.012 A 
ATOM      4  C3A BZF d   1      -4.821   5.874   3.092  0.00  0.00    -0.107 A 
ATOM      5  C4  BZF d   1      -5.998   5.866   3.785  0.00  0.00     0.055 A 
ATOM      6  C5  BZF d   1      -5.965   5.912   5.143  0.00  0.00    -0.016 A 
ATOM      7  C6  BZF d   1      -4.776   5.961   5.839  0.00  0.00     0.022 A 
ATOM      8  C7  BZF d   1      -3.583   5.975   5.196  0.00  0.00     0.029 A 
ATOM      9  C7A BZF d   1      -3.613   5.962   3.823  0.00  0.00     0.058 A 
ENDROOT
TORSDOF 0
ENDMDL
