MODEL 1
REMARK minimizedAffinity 4.11716366
REMARK minimizedRMSD -1
REMARK  0 active torsions:
REMARK  status: ('A' for Active; 'I' for Inactive)
ROOT
ATOM      1  O1  BZF d   1      -1.550  -4.502   2.921  0.00  0.00    -0.204 OA
ATOM      2  C2  BZF d   1      -2.255  -5.595   3.387  0.00  0.00     0.174 A 
ATOM      3  C3  BZF d   1      -1.776  -6.000   4.581  0.00  0.00    -0.012 A 
ATOM      4  C3A BZF d   1      -0.764  -5.048   4.923  0.00  0.00    -0.107 A 
ATOM      5  C4  BZF d   1       0.063  -4.904   6.000  0.00  0.00     0.055 A 
ATOM      6  C5  BZF d   1       0.989  -3.909   5.993  0.00  0.00    -0.016 A 
ATOM      7  C6  BZF d   1       1.118  -3.045   4.925  0.00  0.00     0.022 A 
ATOM      8  C7  BZF d   1       0.316  -3.146   3.837  0.00  0.00     0.029 A 
ATOM      9  C7A BZF d   1      -0.642  -4.129   3.856  0.00  0.00     0.058 A 
ENDROOT
TORSDOF 0
ENDMDL
