MODEL 1
REMARK minimizedAffinity -2.82800794
REMARK minimizedRMSD -1
REMARK  0 active torsions:
REMARK  status: ('A' for Active; 'I' for Inactive)
ROOT
ATOM      1  O1  BZF d   1      -3.796   5.925   5.266  0.00  0.00    -0.204 OA
ATOM      2  C2  BZF d   1      -5.072   5.866   5.793  0.00  0.00     0.174 A 
ATOM      3  C3  BZF d   1      -5.997   5.890   4.812  0.00  0.00    -0.012 A 
ATOM      4  C3A BZF d   1      -5.251   5.875   3.591  0.00  0.00    -0.107 A 
ATOM      5  C4  BZF d   1      -5.607   5.872   2.273  0.00  0.00     0.055 A 
ATOM      6  C5  BZF d   1      -4.635   5.930   1.325  0.00  0.00    -0.016 A 
ATOM      7  C6  BZF d   1      -3.298   5.999   1.660  0.00  0.00     0.022 A 
ATOM      8  C7  BZF d   1      -2.896   6.000   2.954  0.00  0.00     0.029 A 
ATOM      9  C7A BZF d   1      -3.874   5.907   3.913  0.00  0.00     0.058 A 
ENDROOT
TORSDOF 0
ENDMDL
