MODEL 1
REMARK minimizedAffinity -1.98619723
REMARK minimizedRMSD -1
REMARK  0 active torsions:
REMARK  status: ('A' for Active; 'I' for Inactive)
ROOT
ATOM      1  O1  BZF d   1      -5.260   5.759   2.190  0.00  0.00    -0.204 OA
ATOM      2  C2  BZF d   1      -4.080   5.836   1.476  0.00  0.00     0.174 A 
ATOM      3  C3  BZF d   1      -3.028   5.993   2.305  0.00  0.00    -0.012 A 
ATOM      4  C3A BZF d   1      -3.576   5.923   3.625  0.00  0.00    -0.107 A 
ATOM      5  C4  BZF d   1      -3.029   5.995   4.874  0.00  0.00     0.055 A 
ATOM      6  C5  BZF d   1      -3.848   5.964   5.958  0.00  0.00    -0.016 A 
ATOM      7  C6  BZF d   1      -5.218   5.868   5.829  0.00  0.00     0.022 A 
ATOM      8  C7  BZF d   1      -5.808   5.789   4.611  0.00  0.00     0.029 A 
ATOM      9  C7A BZF d   1      -4.979   5.786   3.515  0.00  0.00     0.058 A 
ENDROOT
TORSDOF 0
ENDMDL
