MODEL 1
REMARK minimizedAffinity 7.41306162
REMARK minimizedRMSD -1
REMARK  0 active torsions:
REMARK  status: ('A' for Active; 'I' for Inactive)
ROOT
ATOM      1  C2' OXE d   1       2.447  -2.586   1.199  0.00  0.00     0.078 C 
ATOM      2  C1' OXE d   1       1.019  -0.339   2.088  0.00  0.00     0.078 C 
ATOM      3  C1  OXE d   1       1.408  -1.376   3.112  0.00  0.00    -0.078 A 
ATOM      4  C2  OXE d   1       2.066  -2.494   2.661  0.00  0.00    -0.078 A 
ATOM      5  C3  OXE d   1       2.496  -3.455   3.572  0.00  0.00     0.003 A 
ATOM      6  C4  OXE d   1       2.130  -3.368   4.921  0.00  0.00    -0.002 A 
ATOM      7  C5  OXE d   1       1.425  -2.256   5.394  0.00  0.00    -0.002 A 
ATOM      8  C6  OXE d   1       1.095  -1.233   4.513  0.00  0.00     0.003 A 
ENDROOT
TORSDOF 0
ENDMDL
