MODEL 1
REMARK minimizedAffinity 3.8715682
REMARK minimizedRMSD -1
REMARK  0 active torsions:
REMARK  status: ('A' for Active; 'I' for Inactive)
ROOT
ATOM      1  C2' OXE d   1       0.691  -0.267   2.016  0.00  0.00     0.078 C 
ATOM      2  C1' OXE d   1       2.118  -2.533   1.171  0.00  0.00     0.078 C 
ATOM      3  C1  OXE d   1       1.807  -2.405   2.641  0.00  0.00    -0.078 A 
ATOM      4  C2  OXE d   1       1.149  -1.270   3.052  0.00  0.00    -0.078 A 
ATOM      5  C3  OXE d   1       0.790  -1.128   4.390  0.00  0.00     0.003 A 
ATOM      6  C4  OXE d   1       1.226  -2.055   5.343  0.00  0.00    -0.002 A 
ATOM      7  C5  OXE d   1       1.932  -3.198   4.952  0.00  0.00    -0.002 A 
ATOM      8  C6  OXE d   1       2.192  -3.409   3.602  0.00  0.00     0.003 A 
ENDROOT
TORSDOF 0
ENDMDL
