MODEL 1
REMARK minimizedAffinity 7.06217241
REMARK minimizedRMSD -1
REMARK  0 active torsions:
REMARK  status: ('A' for Active; 'I' for Inactive)
ROOT
ATOM      1  C2' OXE d   1      -0.382  -4.419  -1.733  0.00  0.00     0.078 C 
ATOM      2  C1' OXE d   1      -2.482  -5.361  -0.125  0.00  0.00     0.078 C 
ATOM      3  C1  OXE d   1      -2.408  -3.877  -0.389  0.00  0.00    -0.078 A 
ATOM      4  C2  OXE d   1      -1.351  -3.420  -1.138  0.00  0.00    -0.078 A 
ATOM      5  C3  OXE d   1      -1.265  -2.068  -1.457  0.00  0.00     0.003 A 
ATOM      6  C4  OXE d   1      -2.159  -1.149  -0.894  0.00  0.00    -0.002 A 
ATOM      7  C5  OXE d   1      -3.220  -1.589  -0.096  0.00  0.00    -0.002 A 
ATOM      8  C6  OXE d   1      -3.383  -2.951   0.131  0.00  0.00     0.003 A 
ENDROOT
TORSDOF 0
ENDMDL
