MODEL 1
REMARK minimizedAffinity 3.20735121
REMARK minimizedRMSD -1
REMARK  0 active torsions:
REMARK  status: ('A' for Active; 'I' for Inactive)
ROOT
ATOM      1  C2' OXE d   1       2.431  -4.485   3.315  0.00  0.00     0.078 C 
ATOM      2  C1' OXE d   1       1.420  -2.937   5.428  0.00  0.00     0.078 C 
ATOM      3  C1  OXE d   1       1.402  -2.337   4.045  0.00  0.00    -0.078 A 
ATOM      4  C2  OXE d   1       1.941  -3.083   3.025  0.00  0.00    -0.078 A 
ATOM      5  C3  OXE d   1       1.900  -2.598   1.720  0.00  0.00     0.003 A 
ATOM      6  C4  OXE d   1       1.455  -1.296   1.461  0.00  0.00    -0.002 A 
ATOM      7  C5  OXE d   1       0.938  -0.504   2.492  0.00  0.00    -0.002 A 
ATOM      8  C6  OXE d   1       0.866  -1.024   3.780  0.00  0.00     0.003 A 
ENDROOT
TORSDOF 0
ENDMDL
