MODEL 1
REMARK minimizedAffinity 11.0714579
REMARK minimizedRMSD -1
REMARK  0 active torsions:
REMARK  status: ('A' for Active; 'I' for Inactive)
ROOT
ATOM      1  C2' OXE d   1       0.245   0.019   1.888  0.00  0.00     0.078 C 
ATOM      2  C1' OXE d   1      -0.803   2.086   0.303  0.00  0.00     0.078 C 
ATOM      3  C1  OXE d   1      -1.453   0.728   0.209  0.00  0.00    -0.078 A 
ATOM      4  C2  OXE d   1      -0.905  -0.289   0.953  0.00  0.00    -0.078 A 
ATOM      5  C3  OXE d   1      -1.500  -1.547   0.945  0.00  0.00     0.003 A 
ATOM      6  C4  OXE d   1      -2.557  -1.826   0.069  0.00  0.00    -0.002 A 
ATOM      7  C5  OXE d   1      -3.105  -0.814  -0.726  0.00  0.00    -0.002 A 
ATOM      8  C6  OXE d   1      -2.594   0.476  -0.637  0.00  0.00     0.003 A 
ENDROOT
TORSDOF 0
ENDMDL
