MODEL 1
REMARK minimizedAffinity 8.97020435
REMARK minimizedRMSD -1
REMARK  1 active torsions:
REMARK  status: ('A' for Active; 'I' for Inactive)
REMARK    1  A    between atoms: C1_2  and  C2_3 
ROOT
ATOM      1  C2  UNL d   1       0.269  -2.634  -4.124  0.00  0.00    -0.081 A 
ATOM      2  C3  UNL d   1       0.657  -1.859  -3.024  0.00  0.00     0.006 A 
ATOM      3  C4  UNL d   1       1.875  -1.175  -3.034  0.00  0.00     0.002 A 
ATOM      4  C5  UNL d   1       2.722  -1.249  -4.145  0.00  0.00    -0.080 A 
ATOM      5  C6  UNL d   1       4.018  -0.496  -4.181  0.00  0.00     0.076 C 
ATOM      6  C7  UNL d   1       2.342  -2.038  -5.237  0.00  0.00     0.002 A 
ATOM      7  C8  UNL d   1       1.125  -2.722  -5.227  0.00  0.00     0.006 A 
ENDROOT
BRANCH   1   8
ATOM      8  C1  UNL d   1      -1.073  -3.320  -4.143  0.00  0.00     0.054 C 
ATOM      9  C   UNL d   1      -1.945  -2.798  -5.276  0.00  0.00     0.018 C 
ENDBRANCH   1   8
TORSDOF 1
ENDMDL
