MODEL 1
REMARK minimizedAffinity 4.75515175
REMARK minimizedRMSD -1
REMARK  1 active torsions:
REMARK  status: ('A' for Active; 'I' for Inactive)
REMARK    1  A    between atoms: C1_2  and  C2_3 
ROOT
ATOM      1  C2  UNL d   1       1.285  -5.851   3.830  0.00  0.00    -0.081 A 
ATOM      2  C3  UNL d   1      -0.102  -5.816   4.025  0.00  0.00     0.006 A 
ATOM      3  C4  UNL d   1      -0.971  -5.850   2.932  0.00  0.00     0.002 A 
ATOM      4  C5  UNL d   1      -0.470  -5.928   1.629  0.00  0.00    -0.080 A 
ATOM      5  C6  UNL d   1      -1.393  -5.996   0.448  0.00  0.00     0.076 C 
ATOM      6  C7  UNL d   1       0.915  -5.945   1.433  0.00  0.00     0.002 A 
ATOM      7  C8  UNL d   1       1.785  -5.910   2.525  0.00  0.00     0.006 A 
ENDROOT
BRANCH   1   8
ATOM      8  C1  UNL d   1       2.224  -5.879   5.009  0.00  0.00     0.054 C 
ATOM      9  C   UNL d   1       1.907  -4.765   5.996  0.00  0.00     0.018 C 
ENDBRANCH   1   8
TORSDOF 1
ENDMDL
