MODEL 1
REMARK minimizedAffinity 7.81308651
REMARK minimizedRMSD -1
REMARK  1 active torsions:
REMARK  status: ('A' for Active; 'I' for Inactive)
REMARK    1  A    between atoms: C1_2  and  C2_3 
ROOT
ATOM      1  C2  UNL d   1      -1.425  -0.296  -2.423  0.00  0.00    -0.081 A 
ATOM      2  C3  UNL d   1      -2.561  -1.017  -2.035  0.00  0.00     0.006 A 
ATOM      3  C4  UNL d   1      -2.931  -2.178  -2.718  0.00  0.00     0.002 A 
ATOM      4  C5  UNL d   1      -2.168  -2.642  -3.794  0.00  0.00    -0.080 A 
ATOM      5  C6  UNL d   1      -2.537  -3.904  -4.516  0.00  0.00     0.076 C 
ATOM      6  C7  UNL d   1      -1.042  -1.914  -4.193  0.00  0.00     0.002 A 
ATOM      7  C8  UNL d   1      -0.672  -0.752  -3.511  0.00  0.00     0.006 A 
ENDROOT
BRANCH   1   8
ATOM      8  C1  UNL d   1      -0.987   0.920  -1.649  0.00  0.00     0.054 C 
ATOM      9  C   UNL d   1      -0.030   0.546  -0.526  0.00  0.00     0.018 C 
ENDBRANCH   1   8
TORSDOF 1
ENDMDL
