MODEL 1
REMARK minimizedAffinity 2.41955733
REMARK minimizedRMSD -1
REMARK  1 active torsions:
REMARK  status: ('A' for Active; 'I' for Inactive)
REMARK    1  A    between atoms: C1_2  and  C2_3 
ROOT
ATOM      1  C2  UNL d   1       1.744  -5.942   3.593  0.00  0.00    -0.081 A 
ATOM      2  C3  UNL d   1       0.458  -5.970   4.146  0.00  0.00     0.006 A 
ATOM      3  C4  UNL d   1      -0.669  -5.976   3.320  0.00  0.00     0.002 A 
ATOM      4  C5  UNL d   1      -0.528  -5.963   1.928  0.00  0.00    -0.080 A 
ATOM      5  C6  UNL d   1      -1.728  -6.000   1.029  0.00  0.00     0.076 C 
ATOM      6  C7  UNL d   1       0.756  -5.917   1.375  0.00  0.00     0.002 A 
ATOM      7  C8  UNL d   1       1.883  -5.910   2.201  0.00  0.00     0.006 A 
ENDROOT
BRANCH   1   8
ATOM      8  C1  UNL d   1       2.961  -6.000   4.480  0.00  0.00     0.054 C 
ATOM      9  C   UNL d   1       4.244  -5.963   3.662  0.00  0.00     0.018 C 
ENDBRANCH   1   8
TORSDOF 1
ENDMDL
