MODEL 1
REMARK minimizedAffinity 4.50357008
REMARK minimizedRMSD -1
REMARK  1 active torsions:
REMARK  status: ('A' for Active; 'I' for Inactive)
REMARK    1  A    between atoms: C1_2  and  C2_3 
ROOT
ATOM      1  C2  UNL d   1      -1.924  -3.647   1.785  0.00  0.00    -0.081 A 
ATOM      2  C3  UNL d   1      -1.918  -4.943   2.315  0.00  0.00     0.006 A 
ATOM      3  C4  UNL d   1      -0.752  -5.712   2.291  0.00  0.00     0.002 A 
ATOM      4  C5  UNL d   1       0.428  -5.196   1.746  0.00  0.00    -0.080 A 
ATOM      5  C6  UNL d   1       1.694  -6.000   1.743  0.00  0.00     0.076 C 
ATOM      6  C7  UNL d   1       0.417  -3.907   1.202  0.00  0.00     0.002 A 
ATOM      7  C8  UNL d   1      -0.748  -3.138   1.224  0.00  0.00     0.006 A 
ENDROOT
BRANCH   1   8
ATOM      8  C1  UNL d   1      -3.163  -2.791   1.867  0.00  0.00     0.054 C 
ATOM      9  C   UNL d   1      -3.075  -1.800   3.019  0.00  0.00     0.018 C 
ENDBRANCH   1   8
TORSDOF 1
ENDMDL
