MODEL 1
REMARK minimizedAffinity 5.67625475
REMARK minimizedRMSD -1
REMARK  1 active torsions:
REMARK  status: ('A' for Active; 'I' for Inactive)
REMARK    1  A    between atoms: C1_2  and  C2_3 
ROOT
ATOM      1  C2  UNL d   1      -1.971  -0.356  -1.323  0.00  0.00    -0.081 A 
ATOM      2  C3  UNL d   1      -1.944  -1.079  -0.124  0.00  0.00     0.006 A 
ATOM      3  C4  UNL d   1      -1.079  -0.706   0.908  0.00  0.00     0.002 A 
ATOM      4  C5  UNL d   1      -0.234   0.399   0.761  0.00  0.00    -0.080 A 
ATOM      5  C6  UNL d   1       0.677   0.829   1.873  0.00  0.00     0.076 C 
ATOM      6  C7  UNL d   1      -0.249   1.111  -0.443  0.00  0.00     0.002 A 
ATOM      7  C8  UNL d   1      -1.113   0.738  -1.475  0.00  0.00     0.006 A 
ENDROOT
BRANCH   1   8
ATOM      8  C1  UNL d   1      -2.948  -0.717  -2.413  0.00  0.00     0.054 C 
ATOM      9  C   UNL d   1      -2.528  -1.989  -3.134  0.00  0.00     0.018 C 
ENDBRANCH   1   8
TORSDOF 1
ENDMDL
