MODEL 1
REMARK minimizedAffinity 9.77939415
REMARK minimizedRMSD -1
REMARK  1 active torsions:
REMARK  status: ('A' for Active; 'I' for Inactive)
REMARK    1  A    between atoms: C1_2  and  C2_3 
ROOT
ATOM      1  C2  UNL d   1      -0.034  -5.809   2.601  0.00  0.00    -0.081 A 
ATOM      2  C3  UNL d   1      -0.549  -5.782   3.903  0.00  0.00     0.006 A 
ATOM      3  C4  UNL d   1       0.307  -5.856   5.004  0.00  0.00     0.002 A 
ATOM      4  C5  UNL d   1       1.691  -5.949   4.823  0.00  0.00    -0.080 A 
ATOM      5  C6  UNL d   1       2.623  -5.998   5.997  0.00  0.00     0.076 C 
ATOM      6  C7  UNL d   1       2.204  -5.993   3.522  0.00  0.00     0.002 A 
ATOM      7  C8  UNL d   1       1.349  -5.920   2.420  0.00  0.00     0.006 A 
ENDROOT
BRANCH   1   8
ATOM      8  C1  UNL d   1      -0.950  -5.665   1.412  0.00  0.00     0.054 C 
ATOM      9  C   UNL d   1      -2.389  -5.999   1.777  0.00  0.00     0.018 C 
ENDBRANCH   1   8
TORSDOF 1
ENDMDL
