MODEL 1
REMARK minimizedAffinity 6.04379702
REMARK minimizedRMSD -1
REMARK  1 active torsions:
REMARK  status: ('A' for Active; 'I' for Inactive)
REMARK    1  A    between atoms: C1_2  and  C2_3 
ROOT
ATOM      1  C2  UNL d   1      -1.388  -5.940   1.029  0.00  0.00    -0.081 A 
ATOM      2  C3  UNL d   1      -0.036  -5.991   0.665  0.00  0.00     0.006 A 
ATOM      3  C4  UNL d   1       0.961  -5.997   1.644  0.00  0.00     0.002 A 
ATOM      4  C5  UNL d   1       0.623  -5.960   3.001  0.00  0.00    -0.080 A 
ATOM      5  C6  UNL d   1       1.683  -5.996   4.062  0.00  0.00     0.076 C 
ATOM      6  C7  UNL d   1      -0.726  -5.891   3.364  0.00  0.00     0.002 A 
ATOM      7  C8  UNL d   1      -1.723  -5.885   2.386  0.00  0.00     0.006 A 
ENDROOT
BRANCH   1   8
ATOM      8  C1  UNL d   1      -2.467  -6.000  -0.022  0.00  0.00     0.054 C 
ATOM      9  C   UNL d   1      -3.800  -5.513   0.527  0.00  0.00     0.018 C 
ENDBRANCH   1   8
TORSDOF 1
ENDMDL
