MODEL 1
REMARK minimizedAffinity 6.4423461
REMARK minimizedRMSD -1
REMARK  1 active torsions:
REMARK  status: ('A' for Active; 'I' for Inactive)
REMARK    1  A    between atoms: C1_2  and  C2_3 
ROOT
ATOM      1  C2  UNL d   1      -4.857   0.096   3.962  0.00  0.00    -0.081 A 
ATOM      2  C3  UNL d   1      -4.874   1.295   3.240  0.00  0.00     0.006 A 
ATOM      3  C4  UNL d   1      -5.078   2.513   3.894  0.00  0.00     0.002 A 
ATOM      4  C5  UNL d   1      -5.259   2.552   5.281  0.00  0.00    -0.080 A 
ATOM      5  C6  UNL d   1      -5.449   3.855   5.999  0.00  0.00     0.076 C 
ATOM      6  C7  UNL d   1      -5.259   1.352   6.000  0.00  0.00     0.002 A 
ATOM      7  C8  UNL d   1      -5.056   0.134   5.347  0.00  0.00     0.006 A 
ENDROOT
BRANCH   1   8
ATOM      8  C1  UNL d   1      -4.573  -1.212   3.269  0.00  0.00     0.054 C 
ATOM      9  C   UNL d   1      -3.078  -1.425   3.079  0.00  0.00     0.018 C 
ENDBRANCH   1   8
TORSDOF 1
ENDMDL
