MODEL 1
REMARK minimizedAffinity -1.49331141
REMARK minimizedRMSD -1
REMARK  1 active torsions:
REMARK  status: ('A' for Active; 'I' for Inactive)
REMARK    1  A    between atoms: C1_2  and  C2_3 
ROOT
ATOM      1  C2  UNL d   1      -3.194   0.321   3.315  0.00  0.00    -0.081 A 
ATOM      2  C3  UNL d   1      -2.485  -0.870   3.114  0.00  0.00     0.006 A 
ATOM      3  C4  UNL d   1      -1.173  -0.840   2.636  0.00  0.00     0.002 A 
ATOM      4  C5  UNL d   1      -0.546   0.379   2.358  0.00  0.00    -0.080 A 
ATOM      5  C6  UNL d   1       0.873   0.426   1.873  0.00  0.00     0.076 C 
ATOM      6  C7  UNL d   1      -1.260   1.568   2.542  0.00  0.00     0.002 A 
ATOM      7  C8  UNL d   1      -2.573   1.539   3.020  0.00  0.00     0.006 A 
ENDROOT
BRANCH   1   8
ATOM      8  C1  UNL d   1      -4.587   0.295   3.892  0.00  0.00     0.054 C 
ATOM      9  C   UNL d   1      -5.360   1.555   3.528  0.00  0.00     0.018 C 
ENDBRANCH   1   8
TORSDOF 1
ENDMDL
