MODEL 1
REMARK minimizedAffinity 2.53680611
REMARK minimizedRMSD -1
REMARK  1 active torsions:
REMARK  status: ('A' for Active; 'I' for Inactive)
REMARK    1  A    between atoms: C1_2  and  C2_3 
ROOT
ATOM      1  C2  UNL d   1      -0.826  -5.229   3.483  0.00  0.00    -0.081 A 
ATOM      2  C3  UNL d   1      -1.829  -5.886   2.760  0.00  0.00     0.006 A 
ATOM      3  C4  UNL d   1      -2.638  -5.179   1.867  0.00  0.00     0.002 A 
ATOM      4  C5  UNL d   1      -2.452  -3.806   1.675  0.00  0.00    -0.080 A 
ATOM      5  C6  UNL d   1      -3.293  -3.041   0.697  0.00  0.00     0.076 C 
ATOM      6  C7  UNL d   1      -1.461  -3.146   2.410  0.00  0.00     0.002 A 
ATOM      7  C8  UNL d   1      -0.653  -3.852   3.304  0.00  0.00     0.006 A 
ENDROOT
BRANCH   1   8
ATOM      8  C1  UNL d   1       0.090  -6.000   4.399  0.00  0.00     0.054 C 
ATOM      9  C   UNL d   1       1.490  -5.405   4.410  0.00  0.00     0.018 C 
ENDBRANCH   1   8
TORSDOF 1
ENDMDL
