MODEL 1
REMARK minimizedAffinity 1.82701159
REMARK minimizedRMSD -1
REMARK  1 active torsions:
REMARK  status: ('A' for Active; 'I' for Inactive)
REMARK    1  A    between atoms: C1_2  and  C2_3 
ROOT
ATOM      1  C2  UNL d   1      -4.897   1.697   4.490  0.00  0.00    -0.081 A 
ATOM      2  C3  UNL d   1      -3.838   2.238   3.751  0.00  0.00     0.006 A 
ATOM      3  C4  UNL d   1      -2.849   1.407   3.219  0.00  0.00     0.002 A 
ATOM      4  C5  UNL d   1      -2.906   0.023   3.411  0.00  0.00    -0.080 A 
ATOM      5  C6  UNL d   1      -1.867  -0.883   2.820  0.00  0.00     0.076 C 
ATOM      6  C7  UNL d   1      -3.954  -0.516   4.164  0.00  0.00     0.002 A 
ATOM      7  C8  UNL d   1      -4.943   0.314   4.697  0.00  0.00     0.006 A 
ENDROOT
BRANCH   1   8
ATOM      8  C1  UNL d   1      -6.000   2.583   5.010  0.00  0.00     0.054 C 
ATOM      9  C   UNL d   1      -5.466   3.609   5.999  0.00  0.00     0.018 C 
ENDBRANCH   1   8
TORSDOF 1
ENDMDL
