MODEL 1
REMARK minimizedAffinity 7.84166527
REMARK minimizedRMSD -1
REMARK  1 active torsions:
REMARK  status: ('A' for Active; 'I' for Inactive)
REMARK    1  A    between atoms: C1_2  and  C2_3 
ROOT
ATOM      1  C2  UNL d   1      -0.403  -2.067  -4.030  0.00  0.00    -0.081 A 
ATOM      2  C3  UNL d   1      -0.610  -0.841  -3.386  0.00  0.00     0.006 A 
ATOM      3  C4  UNL d   1      -1.848  -0.542  -2.814  0.00  0.00     0.002 A 
ATOM      4  C5  UNL d   1      -2.898  -1.466  -2.870  0.00  0.00    -0.080 A 
ATOM      5  C6  UNL d   1      -4.223  -1.169  -2.234  0.00  0.00     0.076 C 
ATOM      6  C7  UNL d   1      -2.696  -2.683  -3.529  0.00  0.00     0.002 A 
ATOM      7  C8  UNL d   1      -1.458  -2.983  -4.101  0.00  0.00     0.006 A 
ENDROOT
BRANCH   1   8
ATOM      8  C1  UNL d   1       0.951  -2.419  -4.591  0.00  0.00     0.054 C 
ATOM      9  C   UNL d   1       2.027  -1.475  -4.073  0.00  0.00     0.018 C 
ENDBRANCH   1   8
TORSDOF 1
ENDMDL
