MODEL 1
REMARK minimizedAffinity -1.14050758
REMARK minimizedRMSD -1
REMARK  3 active torsions:
REMARK  status: ('A' for Active; 'I' for Inactive)
REMARK    1  A    between atoms: C3'_2  and  C2'_3 
REMARK    2  A    between atoms: C2'_3  and  C1'_4 
REMARK    3  A    between atoms: C1'_4  and  C1_5 
ROOT
ATOM      1  C1  N4B d   1      -1.415  -1.494   3.549  0.00  0.00    -0.075 A 
ATOM      2  C2  N4B d   1      -1.238  -0.314   2.793  0.00  0.00     0.002 A 
ATOM      3  C3  N4B d   1      -2.287   0.205   2.074  0.00  0.00     0.002 A 
ATOM      4  C4  N4B d   1      -3.512  -0.446   2.082  0.00  0.00    -0.004 A 
ATOM      5  C5  N4B d   1      -3.681  -1.571   2.835  0.00  0.00     0.002 A 
ATOM      6  C6  N4B d   1      -2.637  -2.101   3.565  0.00  0.00     0.002 A 
ENDROOT
BRANCH   1   7
ATOM      7  C1' N4B d   1      -0.274  -2.146   4.281  0.00  0.00     0.057 C 
BRANCH   7   8
ATOM      8  C2' N4B d   1       0.771  -1.089   4.624  0.00  0.00     0.009 C 
BRANCH   8   9
ATOM      9  C3' N4B d   1       2.143  -1.448   4.079  0.00  0.00     0.004 C 
ATOM     10  C4' N4B d   1       3.242  -1.210   5.070  0.00  0.00     0.003 C 
ENDBRANCH   8   9
ENDBRANCH   7   8
ENDBRANCH   1   7
TORSDOF 3
ENDMDL
