MODEL 1
REMARK minimizedAffinity -5.41223097
REMARK minimizedRMSD -1
REMARK  0 active torsions:
REMARK  status: ('A' for Active; 'I' for Inactive)
ROOT
ATOM      1  C   UNL d   1       0.255   0.024  -1.448  0.00  0.00     0.078 C 
ATOM      2  C1  UNL d   1      -0.125   0.703  -0.166  0.00  0.00    -0.077 A 
ATOM      3  C2  UNL d   1      -0.563   2.033  -0.157  0.00  0.00    -0.001 A 
ATOM      4  C3  UNL d   1      -0.904   2.656   1.044  0.00  0.00     0.003 A 
ATOM      5  C4  UNL d   1      -0.808   1.958   2.246  0.00  0.00    -0.005 A 
ATOM      6  C5  UNL d   1      -0.370   0.635   2.248  0.00  0.00     0.003 A 
ATOM      7  C6  UNL d   1      -0.029   0.010   1.047  0.00  0.00    -0.001 A 
ENDROOT
TORSDOF 0
ENDMDL
