MODEL 1
REMARK minimizedAffinity -5.12519741
REMARK minimizedRMSD -1
REMARK  0 active torsions:
REMARK  status: ('A' for Active; 'I' for Inactive)
ROOT
ATOM      1  C   UNL d   1      -0.071  -0.358   1.482  0.00  0.00     0.078 C 
ATOM      2  C1  UNL d   1      -0.113   1.139   1.400  0.00  0.00    -0.077 A 
ATOM      3  C2  UNL d   1      -0.880   1.785   0.423  0.00  0.00    -0.001 A 
ATOM      4  C3  UNL d   1      -0.903   3.179   0.352  0.00  0.00     0.003 A 
ATOM      5  C4  UNL d   1      -0.160   3.938   1.254  0.00  0.00    -0.005 A 
ATOM      6  C5  UNL d   1       0.608   3.303   2.228  0.00  0.00     0.003 A 
ATOM      7  C6  UNL d   1       0.632   1.910   2.301  0.00  0.00    -0.001 A 
ENDROOT
TORSDOF 0
ENDMDL
