MODEL 1
REMARK minimizedAffinity -3.85213256
REMARK minimizedRMSD -1
REMARK  0 active torsions:
REMARK  status: ('A' for Active; 'I' for Inactive)
ROOT
ATOM      1  C   UNL d   1      -1.355   0.888   2.011  0.00  0.00     0.078 C 
ATOM      2  C1  UNL d   1      -0.261   1.914   2.004  0.00  0.00    -0.077 A 
ATOM      3  C2  UNL d   1      -0.357   3.066   1.214  0.00  0.00    -0.001 A 
ATOM      4  C3  UNL d   1       0.674   4.007   1.211  0.00  0.00     0.003 A 
ATOM      5  C4  UNL d   1       1.808   3.806   1.994  0.00  0.00    -0.005 A 
ATOM      6  C5  UNL d   1       1.914   2.661   2.781  0.00  0.00     0.003 A 
ATOM      7  C6  UNL d   1       0.885   1.719   2.787  0.00  0.00    -0.001 A 
ENDROOT
TORSDOF 0
ENDMDL
