MODEL 1
REMARK minimizedAffinity -3.79487872
REMARK minimizedRMSD -1
REMARK  0 active torsions:
REMARK  status: ('A' for Active; 'I' for Inactive)
ROOT
ATOM      1  C   UNL d   1       0.885  -1.099  -0.893  0.00  0.00     0.078 C 
ATOM      2  C1  UNL d   1       0.605  -0.419   0.414  0.00  0.00    -0.077 A 
ATOM      3  C2  UNL d   1       0.941  -1.027   1.630  0.00  0.00    -0.001 A 
ATOM      4  C3  UNL d   1       0.666  -0.387   2.839  0.00  0.00     0.003 A 
ATOM      5  C4  UNL d   1       0.052   0.864   2.845  0.00  0.00    -0.005 A 
ATOM      6  C5  UNL d   1      -0.289   1.476   1.640  0.00  0.00     0.003 A 
ATOM      7  C6  UNL d   1      -0.014   0.837   0.430  0.00  0.00    -0.001 A 
ENDROOT
TORSDOF 0
ENDMDL
