MODEL 1
REMARK minimizedAffinity -3.41391706
REMARK minimizedRMSD -1
REMARK  0 active torsions:
REMARK  status: ('A' for Active; 'I' for Inactive)
ROOT
ATOM      1  C   UNL d   1       1.172   2.251   2.618  0.00  0.00     0.078 C 
ATOM      2  C1  UNL d   1       0.003   2.132   1.687  0.00  0.00    -0.077 A 
ATOM      3  C2  UNL d   1      -1.190   2.821   1.935  0.00  0.00    -0.001 A 
ATOM      4  C3  UNL d   1      -2.274   2.693   1.065  0.00  0.00     0.003 A 
ATOM      5  C4  UNL d   1      -2.176   1.874  -0.059  0.00  0.00    -0.005 A 
ATOM      6  C5  UNL d   1      -0.993   1.182  -0.313  0.00  0.00     0.003 A 
ATOM      7  C6  UNL d   1       0.091   1.309   0.556  0.00  0.00    -0.001 A 
ENDROOT
TORSDOF 0
ENDMDL
