MODEL 1
REMARK minimizedAffinity -1.99865818
REMARK minimizedRMSD -1
REMARK  0 active torsions:
REMARK  status: ('A' for Active; 'I' for Inactive)
ROOT
ATOM      1  C   UNL d   1       0.665   1.168   3.223  0.00  0.00     0.078 C 
ATOM      2  C1  UNL d   1       0.038   1.092   1.863  0.00  0.00    -0.077 A 
ATOM      3  C2  UNL d   1       0.479   0.158   0.917  0.00  0.00    -0.001 A 
ATOM      4  C3  UNL d   1      -0.107   0.105  -0.349  0.00  0.00     0.003 A 
ATOM      5  C4  UNL d   1      -1.136   0.984  -0.681  0.00  0.00    -0.005 A 
ATOM      6  C5  UNL d   1      -1.580   1.919   0.253  0.00  0.00     0.003 A 
ATOM      7  C6  UNL d   1      -0.995   1.973   1.519  0.00  0.00    -0.001 A 
ENDROOT
TORSDOF 0
ENDMDL
