MODEL 1
REMARK minimizedAffinity -5.28872442
REMARK minimizedRMSD -1
REMARK  0 active torsions:
REMARK  status: ('A' for Active; 'I' for Inactive)
ROOT
ATOM      1  C   UNL d   1       0.925  -0.208  -0.993  0.00  0.00     0.078 C 
ATOM      2  C1  UNL d   1       0.281   0.750  -0.037  0.00  0.00    -0.077 A 
ATOM      3  C2  UNL d   1      -0.857   1.480  -0.404  0.00  0.00    -0.001 A 
ATOM      4  C3  UNL d   1      -1.440   2.376   0.494  0.00  0.00     0.003 A 
ATOM      5  C4  UNL d   1      -0.893   2.551   1.763  0.00  0.00    -0.005 A 
ATOM      6  C5  UNL d   1       0.240   1.831   2.136  0.00  0.00     0.003 A 
ATOM      7  C6  UNL d   1       0.825   0.935   1.240  0.00  0.00    -0.001 A 
ENDROOT
TORSDOF 0
ENDMDL
