MODEL 1
REMARK minimizedAffinity -5.05888414
REMARK minimizedRMSD -1
REMARK  1 active torsions:
REMARK  status: ('A' for Active; 'I' for Inactive)
REMARK    1  A    between atoms: C1_2  and  C2_3 
ROOT
ATOM      1  C2  UNL d   1      -0.444   0.252   0.377  0.00  0.00    -0.077 A 
ATOM      2  C3  UNL d   1      -1.132  -0.067   1.557  0.00  0.00     0.002 A 
ATOM      3  C4  UNL d   1      -0.561  -0.925   2.498  0.00  0.00     0.002 A 
ATOM      4  C5  UNL d   1       0.702  -1.468   2.272  0.00  0.00    -0.004 A 
ATOM      5  C6  UNL d   1       1.393  -1.160   1.101  0.00  0.00     0.002 A 
ATOM      6  C7  UNL d   1       0.823  -0.303   0.158  0.00  0.00     0.002 A 
ENDROOT
BRANCH   1   7
ATOM      7  C1  UNL d   1      -1.038   1.216  -0.616  0.00  0.00     0.055 C 
ATOM      8  C   UNL d   1      -2.081   0.537  -1.492  0.00  0.00     0.019 C 
ENDBRANCH   1   7
TORSDOF 1
ENDMDL
