MODEL 1
REMARK minimizedAffinity -4.82920837
REMARK minimizedRMSD -1
REMARK  1 active torsions:
REMARK  status: ('A' for Active; 'I' for Inactive)
REMARK    1  A    between atoms: C1_2  and  C2_3 
ROOT
ATOM      1  C2  UNL d   1      -0.028  -0.524   0.708  0.00  0.00    -0.077 A 
ATOM      2  C3  UNL d   1       0.606  -1.417   1.583  0.00  0.00     0.002 A 
ATOM      3  C4  UNL d   1       1.970  -1.686   1.452  0.00  0.00     0.002 A 
ATOM      4  C5  UNL d   1       2.712  -1.063   0.451  0.00  0.00    -0.004 A 
ATOM      5  C6  UNL d   1       2.090  -0.175  -0.426  0.00  0.00     0.002 A 
ATOM      6  C7  UNL d   1       0.727   0.094  -0.297  0.00  0.00     0.002 A 
ENDROOT
BRANCH   1   7
ATOM      7  C1  UNL d   1      -1.488  -0.196   0.878  0.00  0.00     0.055 C 
ATOM      8  C   UNL d   1      -1.854  -0.046   2.348  0.00  0.00     0.019 C 
ENDBRANCH   1   7
TORSDOF 1
ENDMDL
