MODEL 1
REMARK minimizedAffinity -2.1617465
REMARK minimizedRMSD -1
REMARK  1 active torsions:
REMARK  status: ('A' for Active; 'I' for Inactive)
REMARK    1  A    between atoms: C1_2  and  C2_3 
ROOT
ATOM      1  C2  UNL d   1      -0.754   0.769  -1.427  0.00  0.00    -0.077 A 
ATOM      2  C3  UNL d   1      -1.463   0.785  -0.218  0.00  0.00     0.002 A 
ATOM      3  C4  UNL d   1      -0.864   0.329   0.958  0.00  0.00     0.002 A 
ATOM      4  C5  UNL d   1       0.447  -0.142   0.938  0.00  0.00    -0.004 A 
ATOM      5  C6  UNL d   1       1.160  -0.163  -0.260  0.00  0.00     0.002 A 
ATOM      6  C7  UNL d   1       0.563   0.291  -1.437  0.00  0.00     0.002 A 
ENDROOT
BRANCH   1   7
ATOM      7  C1  UNL d   1      -1.381   1.307  -2.687  0.00  0.00     0.055 C 
ATOM      8  C   UNL d   1      -2.748   0.686  -2.933  0.00  0.00     0.019 C 
ENDBRANCH   1   7
TORSDOF 1
ENDMDL
