MODEL 1
REMARK minimizedAffinity -5.74173355
REMARK minimizedRMSD -1
REMARK  1 active torsions:
REMARK  status: ('A' for Active; 'I' for Inactive)
REMARK    1  A    between atoms: C1_2  and  C2_3 
ROOT
ATOM      1  C2  UNL d   1      -1.047  -0.067  -0.554  0.00  0.00    -0.077 A 
ATOM      2  C3  UNL d   1      -2.443  -0.185  -0.493  0.00  0.00     0.002 A 
ATOM      3  C4  UNL d   1      -3.260   0.765  -1.111  0.00  0.00     0.002 A 
ATOM      4  C5  UNL d   1      -2.690   1.836  -1.796  0.00  0.00    -0.004 A 
ATOM      5  C6  UNL d   1      -1.303   1.963  -1.860  0.00  0.00     0.002 A 
ATOM      6  C7  UNL d   1      -0.486   1.016  -1.242  0.00  0.00     0.002 A 
ENDROOT
BRANCH   1   7
ATOM      7  C1  UNL d   1      -0.165  -1.116   0.069  0.00  0.00     0.055 C 
ATOM      8  C   UNL d   1       1.290  -0.927  -0.335  0.00  0.00     0.019 C 
ENDBRANCH   1   7
TORSDOF 1
ENDMDL
