MODEL 1
REMARK minimizedAffinity 2.69407225
REMARK minimizedRMSD -1
REMARK  1 active torsions:
REMARK  status: ('A' for Active; 'I' for Inactive)
REMARK    1  A    between atoms: C1_2  and  C2_3 
ROOT
ATOM      1  C2  UNL d   1       2.960   1.017  -0.900  0.00  0.00    -0.077 A 
ATOM      2  C3  UNL d   1       3.175  -0.213  -0.262  0.00  0.00     0.002 A 
ATOM      3  C4  UNL d   1       2.223  -0.726   0.622  0.00  0.00     0.002 A 
ATOM      4  C5  UNL d   1       1.049  -0.018   0.872  0.00  0.00    -0.004 A 
ATOM      5  C6  UNL d   1       0.828   1.207   0.244  0.00  0.00     0.002 A 
ATOM      6  C7  UNL d   1       1.778   1.722  -0.638  0.00  0.00     0.002 A 
ENDROOT
BRANCH   1   7
ATOM      7  C1  UNL d   1       3.963   1.548  -1.890  0.00  0.00     0.055 C 
ATOM      8  C   UNL d   1       4.170   3.046  -1.719  0.00  0.00     0.019 C 
ENDBRANCH   1   7
TORSDOF 1
ENDMDL
