MODEL 1
REMARK minimizedAffinity 1.56227314
REMARK minimizedRMSD -1
REMARK  1 active torsions:
REMARK  status: ('A' for Active; 'I' for Inactive)
REMARK    1  A    between atoms: C1_2  and  C2_3 
ROOT
ATOM      1  C2  UNL d   1       1.946  -1.345   2.062  0.00  0.00    -0.077 A 
ATOM      2  C3  UNL d   1       2.993  -1.277   1.132  0.00  0.00     0.002 A 
ATOM      3  C4  UNL d   1       2.834  -0.565  -0.059  0.00  0.00     0.002 A 
ATOM      4  C5  UNL d   1       1.632   0.086  -0.329  0.00  0.00    -0.004 A 
ATOM      5  C6  UNL d   1       0.585   0.022   0.589  0.00  0.00     0.002 A 
ATOM      6  C7  UNL d   1       0.741  -0.690   1.779  0.00  0.00     0.002 A 
ENDROOT
BRANCH   1   7
ATOM      7  C1  UNL d   1       2.132  -2.071   3.369  0.00  0.00     0.055 C 
ATOM      8  C   UNL d   1       1.062  -1.679   4.377  0.00  0.00     0.019 C 
ENDBRANCH   1   7
TORSDOF 1
ENDMDL
