MODEL 1
REMARK minimizedAffinity -2.9115293
REMARK minimizedRMSD -1
REMARK  1 active torsions:
REMARK  status: ('A' for Active; 'I' for Inactive)
REMARK    1  A    between atoms: C1_2  and  C2_3 
ROOT
ATOM      1  C2  UNL d   1       1.478  -0.086   0.122  0.00  0.00    -0.077 A 
ATOM      2  C3  UNL d   1       0.374  -0.031   0.984  0.00  0.00     0.002 A 
ATOM      3  C4  UNL d   1       0.240  -0.957   2.021  0.00  0.00     0.002 A 
ATOM      4  C5  UNL d   1       1.207  -1.941   2.207  0.00  0.00    -0.004 A 
ATOM      5  C6  UNL d   1       2.308  -2.006   1.354  0.00  0.00     0.002 A 
ATOM      6  C7  UNL d   1       2.444  -1.082   0.317  0.00  0.00     0.002 A 
ENDROOT
BRANCH   1   7
ATOM      7  C1  UNL d   1       1.650   0.941  -0.966  0.00  0.00     0.055 C 
ATOM      8  C   UNL d   1       3.093   1.002  -1.447  0.00  0.00     0.019 C 
ENDBRANCH   1   7
TORSDOF 1
ENDMDL
