MODEL 1
REMARK minimizedAffinity -0.298665136
REMARK minimizedRMSD -1
REMARK  1 active torsions:
REMARK  status: ('A' for Active; 'I' for Inactive)
REMARK    1  A    between atoms: C1_2  and  C2_3 
ROOT
ATOM      1  C2  UNL d   1       1.153   0.026   0.023  0.00  0.00    -0.077 A 
ATOM      2  C3  UNL d   1       0.691   1.300   0.384  0.00  0.00     0.002 A 
ATOM      3  C4  UNL d   1      -0.456   1.830  -0.210  0.00  0.00     0.002 A 
ATOM      4  C5  UNL d   1      -1.152   1.092  -1.165  0.00  0.00    -0.004 A 
ATOM      5  C6  UNL d   1      -0.700  -0.175  -1.532  0.00  0.00     0.002 A 
ATOM      6  C7  UNL d   1       0.447  -0.706  -0.940  0.00  0.00     0.002 A 
ENDROOT
BRANCH   1   7
ATOM      7  C1  UNL d   1       2.362  -0.567   0.698  0.00  0.00     0.055 C 
ATOM      8  C   UNL d   1       1.993  -1.799   1.512  0.00  0.00     0.019 C 
ENDBRANCH   1   7
TORSDOF 1
ENDMDL
