MODEL 1
REMARK minimizedAffinity 0.919609427
REMARK minimizedRMSD -1
REMARK  0 active torsions:
REMARK  status: ('A' for Active; 'I' for Inactive)
ROOT
ATOM      1  N1  IND d   1       1.820   2.384   5.626  0.00  0.00    -0.196 N 
ATOM      2  C2  IND d   1       2.292   1.122   5.852  0.00  0.00     0.054 A 
ATOM      3  C3  IND d   1       3.636   1.140   5.996  0.00  0.00    -0.031 A 
ATOM      4  C4  IND d   1       5.253   3.144   5.999  0.00  0.00     0.051 A 
ATOM      5  C5  IND d   1       5.295   4.494   5.794  0.00  0.00    -0.031 A 
ATOM      6  C6  IND d   1       4.158   5.226   5.520  0.00  0.00     0.015 A 
ATOM      7  C7  IND d   1       2.929   4.633   5.452  0.00  0.00    -0.016 A 
ATOM      8  C8  IND d   1       2.883   3.261   5.652  0.00  0.00    -0.047 A 
ATOM      9  C9  IND d   1       4.040   2.506   5.888  0.00  0.00    -0.096 A 
ATOM     10  HN1 IND d   1       0.998   2.596   5.491  0.00  0.00     0.298 HD
ENDROOT
TORSDOF 0
ENDMDL
