MODEL 1
REMARK minimizedAffinity 2.66303372
REMARK minimizedRMSD -1
REMARK  0 active torsions:
REMARK  status: ('A' for Active; 'I' for Inactive)
ROOT
ATOM      1  N1  IND d   1       4.381   2.026   5.238  0.00  0.00    -0.196 N 
ATOM      2  C2  IND d   1       3.021   1.916   5.332  0.00  0.00     0.054 A 
ATOM      3  C3  IND d   1       2.473   3.111   5.646  0.00  0.00    -0.031 A 
ATOM      4  C4  IND d   1       3.607   5.401   5.951  0.00  0.00     0.051 A 
ATOM      5  C5  IND d   1       4.836   5.997   5.999  0.00  0.00    -0.031 A 
ATOM      6  C6  IND d   1       6.000   5.286   5.789  0.00  0.00     0.015 A 
ATOM      7  C7  IND d   1       5.976   3.948   5.510  0.00  0.00    -0.016 A 
ATOM      8  C8  IND d   1       4.730   3.339   5.468  0.00  0.00    -0.047 A 
ATOM      9  C9  IND d   1       3.549   4.047   5.723  0.00  0.00    -0.096 A 
ATOM     10  HN1 IND d   1       4.925   1.384   5.064  0.00  0.00     0.298 HD
ENDROOT
TORSDOF 0
ENDMDL
