MODEL 1
REMARK minimizedAffinity -3.15149117
REMARK minimizedRMSD -1
REMARK  0 active torsions:
REMARK  status: ('A' for Active; 'I' for Inactive)
ROOT
ATOM      1  N1  IND d   1       4.348   1.961   5.551  0.00  0.00    -0.196 N 
ATOM      2  C2  IND d   1       2.993   1.792   5.489  0.00  0.00     0.054 A 
ATOM      3  C3  IND d   1       2.364   2.981   5.624  0.00  0.00    -0.031 A 
ATOM      4  C4  IND d   1       3.363   5.343   5.857  0.00  0.00     0.051 A 
ATOM      5  C5  IND d   1       4.553   5.999   6.000  0.00  0.00    -0.031 A 
ATOM      6  C6  IND d   1       5.760   5.330   5.998  0.00  0.00     0.015 A 
ATOM      7  C7  IND d   1       5.823   3.975   5.841  0.00  0.00    -0.016 A 
ATOM      8  C8  IND d   1       4.616   3.304   5.702  0.00  0.00    -0.047 A 
ATOM      9  C9  IND d   1       3.386   3.972   5.746  0.00  0.00    -0.096 A 
ATOM     10  HN1 IND d   1       4.935   1.334   5.504  0.00  0.00     0.298 HD
ENDROOT
TORSDOF 0
ENDMDL
