MODEL 1
REMARK minimizedAffinity 0.383208364
REMARK minimizedRMSD -1
REMARK  0 active torsions:
REMARK  status: ('A' for Active; 'I' for Inactive)
ROOT
ATOM      1  N1  IND d   1       3.810   1.516   4.736  0.00  0.00    -0.196 N 
ATOM      2  C2  IND d   1       2.609   1.417   5.380  0.00  0.00     0.054 A 
ATOM      3  C3  IND d   1       2.309   2.581   5.998  0.00  0.00    -0.031 A 
ATOM      4  C4  IND d   1       3.595   4.811   5.999  0.00  0.00     0.051 A 
ATOM      5  C5  IND d   1       4.765   5.380   5.580  0.00  0.00    -0.031 A 
ATOM      6  C6  IND d   1       5.694   4.677   4.840  0.00  0.00     0.015 A 
ATOM      7  C7  IND d   1       5.481   3.376   4.481  0.00  0.00    -0.016 A 
ATOM      8  C8  IND d   1       4.298   2.793   4.911  0.00  0.00    -0.047 A 
ATOM      9  C9  IND d   1       3.371   3.489   5.698  0.00  0.00    -0.096 A 
ATOM     10  HN1 IND d   1       4.196   0.888   4.294  0.00  0.00     0.298 HD
ENDROOT
TORSDOF 0
ENDMDL
