MODEL 1
REMARK minimizedAffinity 6.68811369
REMARK minimizedRMSD -1
REMARK  0 active torsions:
REMARK  status: ('A' for Active; 'I' for Inactive)
ROOT
ATOM      1  C   UNL d   1      -0.117   4.239  -4.280  0.00  0.00     0.078 C 
ATOM      2  C1  UNL d   1      -0.283   3.746  -2.873  0.00  0.00    -0.077 A 
ATOM      3  C2  UNL d   1       0.825   3.571  -2.035  0.00  0.00    -0.001 A 
ATOM      4  C3  UNL d   1       0.656   3.103  -0.731  0.00  0.00     0.003 A 
ATOM      5  C4  UNL d   1      -0.619   2.805  -0.254  0.00  0.00    -0.005 A 
ATOM      6  C5  UNL d   1      -1.727   2.973  -1.082  0.00  0.00     0.003 A 
ATOM      7  C6  UNL d   1      -1.560   3.442  -2.386  0.00  0.00    -0.001 A 
ENDROOT
TORSDOF 0
ENDMDL
