MODEL 1
REMARK minimizedAffinity 7.6616807
REMARK minimizedRMSD -1
REMARK  0 active torsions:
REMARK  status: ('A' for Active; 'I' for Inactive)
ROOT
ATOM      1  C   UNL d   1      -1.490   3.288  -3.612  0.00  0.00     0.078 C 
ATOM      2  C1  UNL d   1      -0.412   4.241  -4.035  0.00  0.00    -0.077 A 
ATOM      3  C2  UNL d   1      -0.610   5.124  -5.103  0.00  0.00    -0.001 A 
ATOM      4  C3  UNL d   1       0.405   6.000  -5.493  0.00  0.00     0.003 A 
ATOM      5  C4  UNL d   1       1.625   6.000  -4.819  0.00  0.00    -0.005 A 
ATOM      6  C5  UNL d   1       1.832   5.123  -3.756  0.00  0.00     0.003 A 
ATOM      7  C6  UNL d   1       0.818   4.247  -3.366  0.00  0.00    -0.001 A 
ENDROOT
TORSDOF 0
ENDMDL
