MODEL 1
REMARK minimizedAffinity 10.8711824
REMARK minimizedRMSD -1
REMARK  0 active torsions:
REMARK  status: ('A' for Active; 'I' for Inactive)
ROOT
ATOM      1  C   UNL d   1       4.832  -2.769  -5.806  0.00  0.00     0.078 C 
ATOM      2  C1  UNL d   1       3.399  -2.329  -5.866  0.00  0.00    -0.077 A 
ATOM      3  C2  UNL d   1       2.359  -3.265  -5.918  0.00  0.00    -0.001 A 
ATOM      4  C3  UNL d   1       1.031  -2.841  -5.984  0.00  0.00     0.003 A 
ATOM      5  C4  UNL d   1       0.730  -1.481  -6.000  0.00  0.00    -0.005 A 
ATOM      6  C5  UNL d   1       1.759  -0.542  -5.951  0.00  0.00     0.003 A 
ATOM      7  C6  UNL d   1       3.088  -0.964  -5.885  0.00  0.00    -0.001 A 
ENDROOT
TORSDOF 0
ENDMDL
