MODEL 1
REMARK minimizedAffinity 9.00485134
REMARK minimizedRMSD -1
REMARK  0 active torsions:
REMARK  status: ('A' for Active; 'I' for Inactive)
ROOT
ATOM      1  C   UNL d   1      -5.552   5.995   2.758  0.00  0.00     0.078 C 
ATOM      2  C1  UNL d   1      -5.080   5.886   1.339  0.00  0.00    -0.077 A 
ATOM      3  C2  UNL d   1      -3.725   5.689   1.043  0.00  0.00    -0.001 A 
ATOM      4  C3  UNL d   1      -3.299   5.600  -0.283  0.00  0.00     0.003 A 
ATOM      5  C4  UNL d   1      -4.220   5.708  -1.324  0.00  0.00    -0.005 A 
ATOM      6  C5  UNL d   1      -5.569   5.907  -1.038  0.00  0.00     0.003 A 
ATOM      7  C6  UNL d   1      -5.997   5.996   0.287  0.00  0.00    -0.001 A 
ENDROOT
TORSDOF 0
ENDMDL
