MODEL 1
REMARK minimizedAffinity 8.43412209
REMARK minimizedRMSD -1
REMARK  0 active torsions:
REMARK  status: ('A' for Active; 'I' for Inactive)
ROOT
ATOM      1  C   UNL d   1       1.125  -3.094  -1.882  0.00  0.00     0.078 C 
ATOM      2  C1  UNL d   1       1.309  -2.692  -3.315  0.00  0.00    -0.077 A 
ATOM      3  C2  UNL d   1       2.070  -1.567  -3.656  0.00  0.00    -0.001 A 
ATOM      4  C3  UNL d   1       2.225  -1.198  -4.993  0.00  0.00     0.003 A 
ATOM      5  C4  UNL d   1       1.621  -1.948  -6.000  0.00  0.00    -0.005 A 
ATOM      6  C5  UNL d   1       0.860  -3.067  -5.671  0.00  0.00     0.003 A 
ATOM      7  C6  UNL d   1       0.704  -3.438  -4.334  0.00  0.00    -0.001 A 
ENDROOT
TORSDOF 0
ENDMDL
