MODEL 1
REMARK minimizedAffinity 13.3810425
REMARK minimizedRMSD -1
REMARK  0 active torsions:
REMARK  status: ('A' for Active; 'I' for Inactive)
ROOT
ATOM      1  C   UNL d   1      -4.671   5.866   3.389  0.00  0.00     0.078 C 
ATOM      2  C1  UNL d   1      -4.722   5.816   1.891  0.00  0.00    -0.077 A 
ATOM      3  C2  UNL d   1      -3.562   5.599   1.137  0.00  0.00    -0.001 A 
ATOM      4  C3  UNL d   1      -3.623   5.564  -0.257  0.00  0.00     0.003 A 
ATOM      5  C4  UNL d   1      -4.841   5.746  -0.909  0.00  0.00    -0.005 A 
ATOM      6  C5  UNL d   1      -6.000   5.964  -0.167  0.00  0.00     0.003 A 
ATOM      7  C6  UNL d   1      -5.941   6.000   1.227  0.00  0.00    -0.001 A 
ENDROOT
TORSDOF 0
ENDMDL
