MODEL 1
REMARK minimizedAffinity 7.76773596
REMARK minimizedRMSD -1
REMARK  0 active torsions:
REMARK  status: ('A' for Active; 'I' for Inactive)
ROOT
ATOM      1  C   UNL d   1      -1.642   5.971   0.617  0.00  0.00     0.078 C 
ATOM      2  C1  UNL d   1      -3.135   5.974   0.764  0.00  0.00    -0.077 A 
ATOM      3  C2  UNL d   1      -3.970   5.980  -0.360  0.00  0.00    -0.001 A 
ATOM      4  C3  UNL d   1      -5.357   5.992  -0.209  0.00  0.00     0.003 A 
ATOM      5  C4  UNL d   1      -5.922   6.000   1.065  0.00  0.00    -0.005 A 
ATOM      6  C5  UNL d   1      -5.099   5.996   2.189  0.00  0.00     0.003 A 
ATOM      7  C6  UNL d   1      -3.711   5.984   2.040  0.00  0.00    -0.001 A 
ENDROOT
TORSDOF 0
ENDMDL
