MODEL 1
REMARK minimizedAffinity 8.89328671
REMARK minimizedRMSD -1
REMARK  0 active torsions:
REMARK  status: ('A' for Active; 'I' for Inactive)
ROOT
ATOM      1  C   UNL d   1       0.812   3.609  -1.153  0.00  0.00     0.078 C 
ATOM      2  C1  UNL d   1       0.081   2.956  -0.018  0.00  0.00    -0.077 A 
ATOM      3  C2  UNL d   1       0.778   2.325   1.020  0.00  0.00    -0.001 A 
ATOM      4  C3  UNL d   1       0.084   1.713   2.066  0.00  0.00     0.003 A 
ATOM      5  C4  UNL d   1      -1.309   1.725   2.082  0.00  0.00    -0.005 A 
ATOM      6  C5  UNL d   1      -2.011   2.349   1.053  0.00  0.00     0.003 A 
ATOM      7  C6  UNL d   1      -1.319   2.961   0.006  0.00  0.00    -0.001 A 
ENDROOT
TORSDOF 0
ENDMDL
