MODEL 1
REMARK minimizedAffinity 18.1995773
REMARK minimizedRMSD -1
REMARK  0 active torsions:
REMARK  status: ('A' for Active; 'I' for Inactive)
ROOT
ATOM      1  C   UNL d   1      -4.104   5.659  -2.673  0.00  0.00     0.078 C 
ATOM      2  C1  UNL d   1      -4.391   5.739  -1.204  0.00  0.00    -0.077 A 
ATOM      3  C2  UNL d   1      -3.364   5.608  -0.261  0.00  0.00    -0.001 A 
ATOM      4  C3  UNL d   1      -3.646   5.674   1.105  0.00  0.00     0.003 A 
ATOM      5  C4  UNL d   1      -4.956   5.870   1.539  0.00  0.00    -0.005 A 
ATOM      6  C5  UNL d   1      -5.984   5.999   0.609  0.00  0.00     0.003 A 
ATOM      7  C6  UNL d   1      -5.704   5.933  -0.757  0.00  0.00    -0.001 A 
ENDROOT
TORSDOF 0
ENDMDL
