MODEL 1
REMARK minimizedAffinity 12.3658762
REMARK minimizedRMSD -1
REMARK  0 active torsions:
REMARK  status: ('A' for Active; 'I' for Inactive)
ROOT
ATOM      1  C   UNL d   1      -1.884   3.165  -3.413  0.00  0.00     0.078 C 
ATOM      2  C1  UNL d   1      -0.755   4.143  -3.543  0.00  0.00    -0.077 A 
ATOM      3  C2  UNL d   1       0.304   4.148  -2.627  0.00  0.00    -0.001 A 
ATOM      4  C3  UNL d   1       1.344   5.071  -2.755  0.00  0.00     0.003 A 
ATOM      5  C4  UNL d   1       1.334   5.996  -3.797  0.00  0.00    -0.005 A 
ATOM      6  C5  UNL d   1       0.284   6.000  -4.712  0.00  0.00     0.003 A 
ATOM      7  C6  UNL d   1      -0.757   5.078  -4.586  0.00  0.00    -0.001 A 
ENDROOT
TORSDOF 0
ENDMDL
