MODEL 1
REMARK minimizedAffinity 9.55775928
REMARK minimizedRMSD -1
REMARK  0 active torsions:
REMARK  status: ('A' for Active; 'I' for Inactive)
ROOT
ATOM      1  C   UNL d   1       1.331  -2.642  -3.827  0.00  0.00     0.078 C 
ATOM      2  C1  UNL d   1       1.478  -3.039  -2.388  0.00  0.00    -0.077 A 
ATOM      3  C2  UNL d   1       1.788  -4.357  -2.032  0.00  0.00    -0.001 A 
ATOM      4  C3  UNL d   1       1.912  -4.714  -0.689  0.00  0.00     0.003 A 
ATOM      5  C4  UNL d   1       1.727  -3.760   0.309  0.00  0.00    -0.005 A 
ATOM      6  C5  UNL d   1       1.417  -2.446  -0.035  0.00  0.00     0.003 A 
ATOM      7  C6  UNL d   1       1.292  -2.087  -1.378  0.00  0.00    -0.001 A 
ENDROOT
TORSDOF 0
ENDMDL
