MODEL 1
REMARK minimizedAffinity 10.1455374
REMARK minimizedRMSD -1
REMARK  0 active torsions:
REMARK  status: ('A' for Active; 'I' for Inactive)
ROOT
ATOM      1  C   UNL d   1      -0.941   1.834   0.301  0.00  0.00     0.078 C 
ATOM      2  C1  UNL d   1      -0.763   2.491  -1.035  0.00  0.00    -0.077 A 
ATOM      3  C2  UNL d   1      -1.758   2.410  -2.017  0.00  0.00    -0.001 A 
ATOM      4  C3  UNL d   1      -1.574   3.018  -3.260  0.00  0.00     0.003 A 
ATOM      5  C4  UNL d   1      -0.397   3.711  -3.533  0.00  0.00    -0.005 A 
ATOM      6  C5  UNL d   1       0.600   3.796  -2.562  0.00  0.00     0.003 A 
ATOM      7  C6  UNL d   1       0.418   3.188  -1.319  0.00  0.00    -0.001 A 
ENDROOT
TORSDOF 0
ENDMDL
