MODEL 1
REMARK minimizedAffinity 5.90907192
REMARK minimizedRMSD -1
REMARK  0 active torsions:
REMARK  status: ('A' for Active; 'I' for Inactive)
ROOT
ATOM      1  C   UNL d   1      -0.414   1.775   0.786  0.00  0.00     0.078 C 
ATOM      2  C1  UNL d   1      -0.153   3.028   0.004  0.00  0.00    -0.077 A 
ATOM      3  C2  UNL d   1       0.291   2.971  -1.323  0.00  0.00    -0.001 A 
ATOM      4  C3  UNL d   1       0.539   4.145  -2.035  0.00  0.00     0.003 A 
ATOM      5  C4  UNL d   1       0.347   5.385  -1.429  0.00  0.00    -0.005 A 
ATOM      6  C5  UNL d   1      -0.093   5.452  -0.109  0.00  0.00     0.003 A 
ATOM      7  C6  UNL d   1      -0.341   4.278   0.605  0.00  0.00    -0.001 A 
ENDROOT
TORSDOF 0
ENDMDL
