MODEL 1
REMARK minimizedAffinity 5.0446167
REMARK minimizedRMSD -1
REMARK  0 active torsions:
REMARK  status: ('A' for Active; 'I' for Inactive)
ROOT
ATOM      1  C   UNL d   1      -1.901   1.403   0.492  0.00  0.00     0.078 C 
ATOM      2  C1  UNL d   1      -1.019   2.368  -0.241  0.00  0.00    -0.077 A 
ATOM      3  C2  UNL d   1       0.346   2.467   0.058  0.00  0.00    -0.001 A 
ATOM      4  C3  UNL d   1       1.154   3.377  -0.626  0.00  0.00     0.003 A 
ATOM      5  C4  UNL d   1       0.606   4.196  -1.612  0.00  0.00    -0.005 A 
ATOM      6  C5  UNL d   1      -0.751   4.105  -1.915  0.00  0.00     0.003 A 
ATOM      7  C6  UNL d   1      -1.561   3.196  -1.232  0.00  0.00    -0.001 A 
ENDROOT
TORSDOF 0
ENDMDL
