MODEL 1
REMARK minimizedAffinity 0.477693617
REMARK minimizedRMSD -1
REMARK  0 active torsions:
REMARK  status: ('A' for Active; 'I' for Inactive)
ROOT
ATOM      1  C   UNL d   1      -5.997  -5.253   5.757  0.00  0.00     0.078 C 
ATOM      2  C1  UNL d   1      -5.982  -4.915   4.296  0.00  0.00    -0.077 A 
ATOM      3  C2  UNL d   1      -5.965  -3.583   3.864  0.00  0.00    -0.001 A 
ATOM      4  C3  UNL d   1      -5.961  -3.282   2.501  0.00  0.00     0.003 A 
ATOM      5  C4  UNL d   1      -5.976  -4.309   1.558  0.00  0.00    -0.005 A 
ATOM      6  C5  UNL d   1      -5.996  -5.637   1.979  0.00  0.00     0.003 A 
ATOM      7  C6  UNL d   1      -5.999  -5.939   3.341  0.00  0.00    -0.001 A 
ENDROOT
TORSDOF 0
ENDMDL
