MODEL 1
REMARK minimizedAffinity 11.5128336
REMARK minimizedRMSD -1
REMARK  0 active torsions:
REMARK  status: ('A' for Active; 'I' for Inactive)
ROOT
ATOM      1  C   UNL d   1       1.077  -3.704  -2.301  0.00  0.00     0.078 C 
ATOM      2  C1  UNL d   1       1.363  -2.998  -3.593  0.00  0.00    -0.077 A 
ATOM      3  C2  UNL d   1       0.680  -3.339  -4.767  0.00  0.00    -0.001 A 
ATOM      4  C3  UNL d   1       0.963  -2.680  -5.965  0.00  0.00     0.003 A 
ATOM      5  C4  UNL d   1       1.929  -1.676  -6.000  0.00  0.00    -0.005 A 
ATOM      6  C5  UNL d   1       2.615  -1.331  -4.837  0.00  0.00     0.003 A 
ATOM      7  C6  UNL d   1       2.334  -1.989  -3.638  0.00  0.00    -0.001 A 
ENDROOT
TORSDOF 0
ENDMDL
