MODEL 1
REMARK minimizedAffinity 18.6559906
REMARK minimizedRMSD -1
REMARK  0 active torsions:
REMARK  status: ('A' for Active; 'I' for Inactive)
ROOT
ATOM      1  C   UNL d   1       2.960  -0.484   3.823  0.00  0.00     0.124 A 
ATOM      2  C1  UNL d   1       2.425   0.437   2.933  0.00  0.00     0.062 A 
ATOM      3  C2  UNL d   1       1.143   0.254   2.422  0.00  0.00     0.162 A 
ATOM      4  C3  UNL d   1       0.387  -0.856   2.801  0.00  0.00    -0.034 A 
ATOM      5  C4  UNL d   1       0.932  -1.778   3.696  0.00  0.00     0.162 A 
ATOM      6  C5  UNL d   1       2.214  -1.590   4.204  0.00  0.00     0.062 A 
ATOM      7  F   UNL d   1       2.729  -2.480   5.064  0.00  0.00    -0.097 F 
ATOM      8  F1  UNL d   1       0.232  -2.855   4.081  0.00  0.00    -0.096 F 
ATOM      9  I   UNL d   1      -1.530  -1.134   2.039  0.00  0.00    -0.060 I 
ATOM     10  F2  UNL d   1       0.651   1.159   1.564  0.00  0.00    -0.096 F 
ATOM     11  F3  UNL d   1       3.144   1.506   2.563  0.00  0.00    -0.097 F 
ATOM     12  F4  UNL d   1       4.194  -0.305   4.313  0.00  0.00    -0.092 F 
ENDROOT
TORSDOF 0
ENDMDL
