MODEL 1
REMARK minimizedAffinity 17.9925098
REMARK minimizedRMSD -1
REMARK  0 active torsions:
REMARK  status: ('A' for Active; 'I' for Inactive)
ROOT
ATOM      1  C   UNL d   1      -0.849  -1.139   1.138  0.00  0.00     0.124 A 
ATOM      2  C1  UNL d   1       0.437  -1.609   0.907  0.00  0.00     0.062 A 
ATOM      3  C2  UNL d   1       1.501  -1.141   1.673  0.00  0.00     0.162 A 
ATOM      4  C3  UNL d   1       1.284  -0.198   2.678  0.00  0.00    -0.034 A 
ATOM      5  C4  UNL d   1      -0.012   0.270   2.903  0.00  0.00     0.162 A 
ATOM      6  C5  UNL d   1      -1.072  -0.201   2.135  0.00  0.00     0.062 A 
ATOM      7  F   UNL d   1      -2.313   0.254   2.360  0.00  0.00    -0.097 F 
ATOM      8  F1  UNL d   1      -0.256   1.176   3.862  0.00  0.00    -0.096 F 
ATOM      9  I   UNL d   1       2.872   0.503   3.825  0.00  0.00    -0.060 I 
ATOM     10  F2  UNL d   1       2.733  -1.612   1.428  0.00  0.00    -0.096 F 
ATOM     11  F3  UNL d   1       0.655  -2.515  -0.057  0.00  0.00    -0.097 F 
ATOM     12  F4  UNL d   1      -1.870  -1.590   0.399  0.00  0.00    -0.092 F 
ENDROOT
TORSDOF 0
ENDMDL
