MODEL 1
REMARK minimizedAffinity 16.5578365
REMARK minimizedRMSD -1
REMARK  0 active torsions:
REMARK  status: ('A' for Active; 'I' for Inactive)
ROOT
ATOM      1  C   UNL d   1      -1.630  -1.818   2.543  0.00  0.00     0.124 A 
ATOM      2  C1  UNL d   1      -0.605  -2.559   3.115  0.00  0.00     0.062 A 
ATOM      3  C2  UNL d   1       0.635  -1.973   3.351  0.00  0.00     0.162 A 
ATOM      4  C3  UNL d   1       0.858  -0.637   3.016  0.00  0.00    -0.034 A 
ATOM      5  C4  UNL d   1      -0.178   0.101   2.439  0.00  0.00     0.162 A 
ATOM      6  C5  UNL d   1      -1.415  -0.490   2.205  0.00  0.00     0.062 A 
ATOM      7  F   UNL d   1      -2.404   0.228   1.651  0.00  0.00    -0.097 F 
ATOM      8  F1  UNL d   1       0.002   1.387   2.104  0.00  0.00    -0.096 F 
ATOM      9  I   UNL d   1       2.710   0.243   3.367  0.00  0.00    -0.060 I 
ATOM     10  F2  UNL d   1       1.607  -2.712   3.906  0.00  0.00    -0.096 F 
ATOM     11  F3  UNL d   1      -0.809  -3.843   3.442  0.00  0.00    -0.097 F 
ATOM     12  F4  UNL d   1      -2.821  -2.385   2.316  0.00  0.00    -0.092 F 
ENDROOT
TORSDOF 0
ENDMDL
