MODEL 1
REMARK minimizedAffinity 19.1988964
REMARK minimizedRMSD -1
REMARK  0 active torsions:
REMARK  status: ('A' for Active; 'I' for Inactive)
ROOT
ATOM      1  C   UNL d   1      -0.752  -0.087   2.824  0.00  0.00     0.124 A 
ATOM      2  C1  UNL d   1       0.418  -0.714   2.420  0.00  0.00     0.062 A 
ATOM      3  C2  UNL d   1       0.427  -1.515   1.282  0.00  0.00     0.162 A 
ATOM      4  C3  UNL d   1      -0.740  -1.693   0.538  0.00  0.00    -0.034 A 
ATOM      5  C4  UNL d   1      -1.914  -1.060   0.952  0.00  0.00     0.162 A 
ATOM      6  C5  UNL d   1      -1.917  -0.261   2.090  0.00  0.00     0.062 A 
ATOM      7  F   UNL d   1      -3.049   0.344   2.479  0.00  0.00    -0.097 F 
ATOM      8  F1  UNL d   1      -3.053  -1.210   0.260  0.00  0.00    -0.096 F 
ATOM      9  I   UNL d   1      -0.732  -2.890  -1.164  0.00  0.00    -0.060 I 
ATOM     10  F2  UNL d   1       1.572  -2.108   0.915  0.00  0.00    -0.096 F 
ATOM     11  F3  UNL d   1       1.545  -0.548   3.129  0.00  0.00    -0.097 F 
ATOM     12  F4  UNL d   1      -0.758   0.682   3.921  0.00  0.00    -0.092 F 
ENDROOT
TORSDOF 0
ENDMDL
