MODEL 1
REMARK minimizedAffinity 22.4807892
REMARK minimizedRMSD -1
REMARK  0 active torsions:
REMARK  status: ('A' for Active; 'I' for Inactive)
ROOT
ATOM      1  C   UNL d   1       0.740  -0.508   2.884  0.00  0.00     0.124 A 
ATOM      2  C1  UNL d   1       0.535  -1.805   3.332  0.00  0.00     0.062 A 
ATOM      3  C2  UNL d   1      -0.749  -2.342   3.360  0.00  0.00     0.162 A 
ATOM      4  C3  UNL d   1      -1.839  -1.582   2.938  0.00  0.00    -0.034 A 
ATOM      5  C4  UNL d   1      -1.626  -0.277   2.489  0.00  0.00     0.162 A 
ATOM      6  C5  UNL d   1      -0.341   0.255   2.463  0.00  0.00     0.062 A 
ATOM      7  F   UNL d   1      -0.145   1.509   2.030  0.00  0.00    -0.097 F 
ATOM      8  F1  UNL d   1      -2.652   0.482   2.076  0.00  0.00    -0.096 F 
ATOM      9  I   UNL d   1      -3.760  -2.381   2.979  0.00  0.00    -0.060 I 
ATOM     10  F2  UNL d   1      -0.916  -3.599   3.798  0.00  0.00    -0.096 F 
ATOM     11  F3  UNL d   1       1.577  -2.544   3.740  0.00  0.00    -0.097 F 
ATOM     12  F4  UNL d   1       1.976   0.007   2.859  0.00  0.00    -0.092 F 
ENDROOT
TORSDOF 0
ENDMDL
