MODEL 1
REMARK minimizedAffinity 21.3377895
REMARK minimizedRMSD -1
REMARK  0 active torsions:
REMARK  status: ('A' for Active; 'I' for Inactive)
ROOT
ATOM      1  C   UNL d   1      -0.866  -2.940  -2.372  0.00  0.00     0.124 A 
ATOM      2  C1  UNL d   1      -0.308  -1.702  -2.088  0.00  0.00     0.062 A 
ATOM      3  C2  UNL d   1       0.115  -0.870  -3.121  0.00  0.00     0.162 A 
ATOM      4  C3  UNL d   1      -0.020  -1.274  -4.449  0.00  0.00    -0.034 A 
ATOM      5  C4  UNL d   1      -0.581  -2.522  -4.728  0.00  0.00     0.162 A 
ATOM      6  C5  UNL d   1      -1.002  -3.349  -3.692  0.00  0.00     0.062 A 
ATOM      7  F   UNL d   1      -1.540  -4.545  -3.969  0.00  0.00    -0.097 F 
ATOM      8  F1  UNL d   1      -0.725  -2.941  -5.993  0.00  0.00    -0.096 F 
ATOM      9  I   UNL d   1       0.611  -0.034  -5.997  0.00  0.00    -0.060 I 
ATOM     10  F2  UNL d   1       0.651   0.321  -2.817  0.00  0.00    -0.096 F 
ATOM     11  F3  UNL d   1      -0.174  -1.305  -0.814  0.00  0.00    -0.097 F 
ATOM     12  F4  UNL d   1      -1.270  -3.739  -1.376  0.00  0.00    -0.092 F 
ENDROOT
TORSDOF 0
ENDMDL
