MODEL 1
REMARK minimizedAffinity 17.885603
REMARK minimizedRMSD -1
REMARK  0 active torsions:
REMARK  status: ('A' for Active; 'I' for Inactive)
ROOT
ATOM      1  C   UNL d   1       2.547  -1.224   4.922  0.00  0.00     0.124 A 
ATOM      2  C1  UNL d   1       1.673  -2.301   4.979  0.00  0.00     0.062 A 
ATOM      3  C2  UNL d   1       0.557  -2.342   4.148  0.00  0.00     0.162 A 
ATOM      4  C3  UNL d   1       0.310  -1.303   3.250  0.00  0.00    -0.034 A 
ATOM      5  C4  UNL d   1       1.193  -0.223   3.199  0.00  0.00     0.162 A 
ATOM      6  C5  UNL d   1       2.307  -0.187   4.032  0.00  0.00     0.062 A 
ATOM      7  F   UNL d   1       3.150   0.854   3.975  0.00  0.00    -0.097 F 
ATOM      8  F1  UNL d   1       0.985   0.792   2.347  0.00  0.00    -0.096 F 
ATOM      9  I   UNL d   1      -1.357  -1.361   2.005  0.00  0.00    -0.060 I 
ATOM     10  F2  UNL d   1      -0.270  -3.395   4.225  0.00  0.00    -0.096 F 
ATOM     11  F3  UNL d   1       1.902  -3.304   5.839  0.00  0.00    -0.097 F 
ATOM     12  F4  UNL d   1       3.619  -1.187   5.723  0.00  0.00    -0.092 F 
ENDROOT
TORSDOF 0
ENDMDL
