MODEL 1
REMARK minimizedAffinity 19.2999382
REMARK minimizedRMSD -1
REMARK  0 active torsions:
REMARK  status: ('A' for Active; 'I' for Inactive)
ROOT
ATOM      1  C   UNL d   1       1.036  -0.255   2.821  0.00  0.00     0.124 A 
ATOM      2  C1  UNL d   1       0.775  -1.525   3.318  0.00  0.00     0.062 A 
ATOM      3  C2  UNL d   1      -0.538  -1.959   3.477  0.00  0.00     0.162 A 
ATOM      4  C3  UNL d   1      -1.601  -1.122   3.137  0.00  0.00    -0.034 A 
ATOM      5  C4  UNL d   1      -1.331   0.154   2.639  0.00  0.00     0.162 A 
ATOM      6  C5  UNL d   1      -0.017   0.583   2.482  0.00  0.00     0.062 A 
ATOM      7  F   UNL d   1       0.233   1.810   2.002  0.00  0.00    -0.097 F 
ATOM      8  F1  UNL d   1      -2.330   0.984   2.303  0.00  0.00    -0.096 F 
ATOM      9  I   UNL d   1      -3.566  -1.767   3.373  0.00  0.00    -0.060 I 
ATOM     10  F2  UNL d   1      -0.760  -3.190   3.959  0.00  0.00    -0.096 F 
ATOM     11  F3  UNL d   1       1.791  -2.336   3.647  0.00  0.00    -0.097 F 
ATOM     12  F4  UNL d   1       2.300   0.160   2.671  0.00  0.00    -0.092 F 
ENDROOT
TORSDOF 0
ENDMDL
