MODEL 1
REMARK minimizedAffinity 22.7689571
REMARK minimizedRMSD -1
REMARK  0 active torsions:
REMARK  status: ('A' for Active; 'I' for Inactive)
ROOT
ATOM      1  C   UNL d   1       0.569  -4.796  -5.663  0.00  0.00     0.124 A 
ATOM      2  C1  UNL d   1       1.427  -3.725  -5.461  0.00  0.00     0.062 A 
ATOM      3  C2  UNL d   1       0.919  -2.476  -5.115  0.00  0.00     0.162 A 
ATOM      4  C3  UNL d   1      -0.456  -2.292  -4.968  0.00  0.00    -0.034 A 
ATOM      5  C4  UNL d   1      -1.313  -3.374  -5.174  0.00  0.00     0.162 A 
ATOM      6  C5  UNL d   1      -0.800  -4.620  -5.520  0.00  0.00     0.062 A 
ATOM      7  F   UNL d   1      -1.631  -5.655  -5.715  0.00  0.00    -0.097 F 
ATOM      8  F1  UNL d   1      -2.640  -3.233  -5.041  0.00  0.00    -0.096 F 
ATOM      9  I   UNL d   1      -1.220  -0.427  -4.451  0.00  0.00    -0.060 I 
ATOM     10  F2  UNL d   1       1.772  -1.458  -4.926  0.00  0.00    -0.096 F 
ATOM     11  F3  UNL d   1       2.750  -3.892  -5.601  0.00  0.00    -0.097 F 
ATOM     12  F4  UNL d   1       1.060  -5.996  -5.997  0.00  0.00    -0.092 F 
ENDROOT
TORSDOF 0
ENDMDL
