MODEL 1
REMARK minimizedAffinity 15.3205624
REMARK minimizedRMSD -1
REMARK  0 active torsions:
REMARK  status: ('A' for Active; 'I' for Inactive)
ROOT
ATOM      1  C1  DEN d   1       0.462  -0.283   2.224  0.00  0.00     0.130 A 
ATOM      2  C2  DEN d   1       1.378  -1.081   3.033  0.00  0.00    -0.031 A 
ATOM      3  C3  DEN d   1       1.572  -0.388   4.322  0.00  0.00     0.027 A 
ATOM      4  C4  DEN d   1       0.545   1.832   5.141  0.00  0.00     0.027 A 
ATOM      5  C5  DEN d   1      -0.284   2.878   4.800  0.00  0.00    -0.003 A 
ATOM      6  C6  DEN d   1      -0.890   2.961   3.575  0.00  0.00     0.001 A 
ATOM      7  C7  DEN d   1      -0.712   1.956   2.661  0.00  0.00     0.017 A 
ATOM      8  C8  DEN d   1       0.128   0.902   2.994  0.00  0.00    -0.094 A 
ATOM      9  C9  DEN d   1       0.721   0.830   4.242  0.00  0.00    -0.072 A 
ENDROOT
TORSDOF 0
ENDMDL
