MODEL 1
REMARK minimizedAffinity 13.9733028
REMARK minimizedRMSD -1
REMARK  0 active torsions:
REMARK  status: ('A' for Active; 'I' for Inactive)
ROOT
ATOM      1  C1  DEN d   1       3.761   2.678   2.272  0.00  0.00     0.130 A 
ATOM      2  C2  DEN d   1       3.104   3.303   1.128  0.00  0.00    -0.031 A 
ATOM      3  C3  DEN d   1       3.516   4.721   1.083  0.00  0.00     0.027 A 
ATOM      4  C4  DEN d   1       5.101   6.000   2.665  0.00  0.00     0.027 A 
ATOM      5  C5  DEN d   1       5.892   5.895   3.788  0.00  0.00    -0.003 A 
ATOM      6  C6  DEN d   1       5.999   4.729   4.499  0.00  0.00     0.001 A 
ATOM      7  C7  DEN d   1       5.341   3.608   4.067  0.00  0.00     0.017 A 
ATOM      8  C8  DEN d   1       4.537   3.708   2.940  0.00  0.00    -0.094 A 
ATOM      9  C9  DEN d   1       4.450   4.892   2.228  0.00  0.00    -0.072 A 
ENDROOT
TORSDOF 0
ENDMDL
