MODEL 1
REMARK minimizedAffinity 2.30271339
REMARK minimizedRMSD -1
REMARK  0 active torsions:
REMARK  status: ('A' for Active; 'I' for Inactive)
ROOT
ATOM      1  C1  DEN d   1       3.318   6.000   1.629  0.00  0.00     0.130 A 
ATOM      2  C2  DEN d   1       2.592   4.916   0.973  0.00  0.00    -0.031 A 
ATOM      3  C3  DEN d   1       3.103   3.636   1.505  0.00  0.00     0.027 A 
ATOM      4  C4  DEN d   1       4.935   3.231   3.275  0.00  0.00     0.027 A 
ATOM      5  C5  DEN d   1       5.845   3.842   4.108  0.00  0.00    -0.003 A 
ATOM      6  C6  DEN d   1       6.000   5.203   4.148  0.00  0.00     0.001 A 
ATOM      7  C7  DEN d   1       5.200   6.000   3.373  0.00  0.00     0.017 A 
ATOM      8  C8  DEN d   1       4.285   5.391   2.525  0.00  0.00    -0.094 A 
ATOM      9  C9  DEN d   1       4.135   4.014   2.507  0.00  0.00    -0.072 A 
ENDROOT
TORSDOF 0
ENDMDL
