MODEL 1
REMARK minimizedAffinity 14.8273754
REMARK minimizedRMSD -1
REMARK  0 active torsions:
REMARK  status: ('A' for Active; 'I' for Inactive)
ROOT
ATOM      1  C1  DEN d   1      -5.644   4.741  -2.233  0.00  0.00     0.130 A 
ATOM      2  C2  DEN d   1      -5.841   5.994  -1.510  0.00  0.00    -0.031 A 
ATOM      3  C3  DEN d   1      -6.000   5.674  -0.077  0.00  0.00     0.027 A 
ATOM      4  C4  DEN d   1      -5.957   3.373   1.086  0.00  0.00     0.027 A 
ATOM      5  C5  DEN d   1      -5.831   2.016   0.886  0.00  0.00    -0.003 A 
ATOM      6  C6  DEN d   1      -5.669   1.474  -0.361  0.00  0.00     0.001 A 
ATOM      7  C7  DEN d   1      -5.584   2.297  -1.453  0.00  0.00     0.017 A 
ATOM      8  C8  DEN d   1      -5.717   3.666  -1.260  0.00  0.00    -0.094 A 
ATOM      9  C9  DEN d   1      -5.868   4.195   0.011  0.00  0.00    -0.072 A 
ENDROOT
TORSDOF 0
ENDMDL
