MODEL 1
REMARK minimizedAffinity 8.18287563
REMARK minimizedRMSD -1
REMARK  0 active torsions:
REMARK  status: ('A' for Active; 'I' for Inactive)
ROOT
ATOM      1  C1  DEN d   1      -0.307  -1.574   1.882  0.00  0.00     0.130 A 
ATOM      2  C2  DEN d   1      -0.475  -0.145   1.634  0.00  0.00    -0.031 A 
ATOM      3  C3  DEN d   1       0.324   0.589   2.635  0.00  0.00     0.027 A 
ATOM      4  C4  DEN d   1       1.802  -0.343   4.533  0.00  0.00     0.027 A 
ATOM      5  C5  DEN d   1       2.247  -1.493   5.147  0.00  0.00    -0.003 A 
ATOM      6  C6  DEN d   1       1.850  -2.739   4.740  0.00  0.00     0.001 A 
ATOM      7  C7  DEN d   1       1.015  -2.867   3.661  0.00  0.00     0.017 A 
ATOM      8  C8  DEN d   1       0.556  -1.712   3.042  0.00  0.00    -0.094 A 
ATOM      9  C9  DEN d   1       0.979  -0.462   3.460  0.00  0.00    -0.072 A 
ENDROOT
TORSDOF 0
ENDMDL
