MODEL 1
REMARK minimizedAffinity 6.89422464
REMARK minimizedRMSD -1
REMARK  0 active torsions:
REMARK  status: ('A' for Active; 'I' for Inactive)
ROOT
ATOM      1  C1  DEN d   1      -1.403  -3.757  -6.000  0.00  0.00     0.130 A 
ATOM      2  C2  DEN d   1      -1.904  -4.945  -5.316  0.00  0.00    -0.031 A 
ATOM      3  C3  DEN d   1      -1.752  -4.734  -3.862  0.00  0.00     0.027 A 
ATOM      4  C4  DEN d   1      -0.798  -2.690  -2.611  0.00  0.00     0.027 A 
ATOM      5  C5  DEN d   1      -0.237  -1.442  -2.764  0.00  0.00    -0.003 A 
ATOM      6  C6  DEN d   1       0.004  -0.896  -3.997  0.00  0.00     0.001 A 
ATOM      7  C7  DEN d   1      -0.358  -1.582  -5.126  0.00  0.00     0.017 A 
ATOM      8  C8  DEN d   1      -0.918  -2.845  -4.980  0.00  0.00    -0.094 A 
ATOM      9  C9  DEN d   1      -1.165  -3.374  -3.724  0.00  0.00    -0.072 A 
ENDROOT
TORSDOF 0
ENDMDL
