MODEL 1
REMARK minimizedAffinity 9.57349682
REMARK minimizedRMSD -1
REMARK  0 active torsions:
REMARK  status: ('A' for Active; 'I' for Inactive)
ROOT
ATOM      1  C1  DEN d   1       0.064  -0.348  -3.105  0.00  0.00     0.130 A 
ATOM      2  C2  DEN d   1       0.339  -0.781  -4.472  0.00  0.00    -0.031 A 
ATOM      3  C3  DEN d   1      -0.262  -2.117  -4.657  0.00  0.00     0.027 A 
ATOM      4  C4  DEN d   1      -1.589  -3.547  -2.970  0.00  0.00     0.027 A 
ATOM      5  C5  DEN d   1      -2.068  -3.605  -1.680  0.00  0.00    -0.003 A 
ATOM      6  C6  DEN d   1      -1.844  -2.605  -0.772  0.00  0.00     0.001 A 
ATOM      7  C7  DEN d   1      -1.158  -1.482  -1.155  0.00  0.00     0.017 A 
ATOM      8  C8  DEN d   1      -0.665  -1.420  -2.451  0.00  0.00    -0.094 A 
ATOM      9  C9  DEN d   1      -0.913  -2.436  -3.358  0.00  0.00    -0.072 A 
ENDROOT
TORSDOF 0
ENDMDL
