MODEL 1
REMARK minimizedAffinity 5.73645687
REMARK minimizedRMSD -1
REMARK  0 active torsions:
REMARK  status: ('A' for Active; 'I' for Inactive)
ROOT
ATOM      1  C1  DEN d   1       1.070   0.383   3.820  0.00  0.00     0.130 A 
ATOM      2  C2  DEN d   1       1.782  -0.889   3.748  0.00  0.00    -0.031 A 
ATOM      3  C3  DEN d   1       1.055  -1.767   2.809  0.00  0.00     0.027 A 
ATOM      4  C4  DEN d   1      -1.090  -1.279   1.463  0.00  0.00     0.027 A 
ATOM      5  C5  DEN d   1      -2.064  -0.340   1.204  0.00  0.00    -0.003 A 
ATOM      6  C6  DEN d   1      -2.080   0.884   1.819  0.00  0.00     0.001 A 
ATOM      7  C7  DEN d   1      -1.078   1.218   2.691  0.00  0.00     0.017 A 
ATOM      8  C8  DEN d   1      -0.097   0.274   2.963  0.00  0.00    -0.094 A 
ATOM      9  C9  DEN d   1      -0.091  -0.953   2.322  0.00  0.00    -0.072 A 
ENDROOT
TORSDOF 0
ENDMDL
