MODEL 1
REMARK minimizedAffinity 17.9698467
REMARK minimizedRMSD -1
REMARK  0 active torsions:
REMARK  status: ('A' for Active; 'I' for Inactive)
ROOT
ATOM      1  C1  DEN d   1      -0.066  -1.627  -1.527  0.00  0.00     0.130 A 
ATOM      2  C2  DEN d   1      -1.417  -2.145  -1.727  0.00  0.00    -0.031 A 
ATOM      3  C3  DEN d   1      -1.741  -2.033  -3.164  0.00  0.00     0.027 A 
ATOM      4  C4  DEN d   1      -0.288  -1.116  -5.088  0.00  0.00     0.027 A 
ATOM      5  C5  DEN d   1       0.927  -0.553  -5.407  0.00  0.00    -0.003 A 
ATOM      6  C6  DEN d   1       1.876  -0.279  -4.458  0.00  0.00     0.001 A 
ATOM      7  C7  DEN d   1       1.643  -0.610  -3.149  0.00  0.00     0.017 A 
ATOM      8  C8  DEN d   1       0.416  -1.171  -2.819  0.00  0.00    -0.094 A 
ATOM      9  C9  DEN d   1      -0.525  -1.452  -3.795  0.00  0.00    -0.072 A 
ENDROOT
TORSDOF 0
ENDMDL
