MODEL 1
REMARK minimizedAffinity 14.9868355
REMARK minimizedRMSD -1
REMARK  0 active torsions:
REMARK  status: ('A' for Active; 'I' for Inactive)
ROOT
ATOM      1  C1  DEN d   1      -1.036  -0.590  -0.591  0.00  0.00     0.130 A 
ATOM      2  C2  DEN d   1      -0.687  -1.773  -1.372  0.00  0.00    -0.031 A 
ATOM      3  C3  DEN d   1       0.368  -2.506  -0.645  0.00  0.00     0.027 A 
ATOM      4  C4  DEN d   1       1.487  -1.928   1.606  0.00  0.00     0.027 A 
ATOM      5  C5  DEN d   1       1.530  -1.016   2.637  0.00  0.00    -0.003 A 
ATOM      6  C6  DEN d   1       0.751   0.111   2.648  0.00  0.00     0.001 A 
ATOM      7  C7  DEN d   1      -0.137   0.332   1.628  0.00  0.00     0.017 A 
ATOM      8  C8  DEN d   1      -0.181  -0.580   0.582  0.00  0.00    -0.094 A 
ATOM      9  C9  DEN d   1       0.606  -1.720   0.596  0.00  0.00    -0.072 A 
ENDROOT
TORSDOF 0
ENDMDL
