MODEL 1
REMARK minimizedAffinity 16.6448746
REMARK minimizedRMSD -1
REMARK  0 active torsions:
REMARK  status: ('A' for Active; 'I' for Inactive)
ROOT
ATOM      1  C1  DEN d   1       1.911  -1.546   2.724  0.00  0.00     0.130 A 
ATOM      2  C2  DEN d   1       2.363  -2.762   3.393  0.00  0.00    -0.031 A 
ATOM      3  C3  DEN d   1       3.612  -2.449   4.117  0.00  0.00     0.027 A 
ATOM      4  C4  DEN d   1       4.879  -0.207   4.269  0.00  0.00     0.027 A 
ATOM      5  C5  DEN d   1       4.888   1.107   3.858  0.00  0.00    -0.003 A 
ATOM      6  C6  DEN d   1       3.932   1.617   3.021  0.00  0.00     0.001 A 
ATOM      7  C7  DEN d   1       2.900   0.818   2.602  0.00  0.00     0.017 A 
ATOM      8  C8  DEN d   1       2.889  -0.510   3.006  0.00  0.00    -0.094 A 
ATOM      9  C9  DEN d   1       3.858  -1.004   3.863  0.00  0.00    -0.072 A 
ENDROOT
TORSDOF 0
ENDMDL
