MODEL 1
REMARK minimizedAffinity 11.1791468
REMARK minimizedRMSD -1
REMARK  0 active torsions:
REMARK  status: ('A' for Active; 'I' for Inactive)
ROOT
ATOM      1  C1  DEN d   1      -1.858  -4.116  -5.996  0.00  0.00     0.130 A 
ATOM      2  C2  DEN d   1      -2.068  -5.561  -5.999  0.00  0.00    -0.031 A 
ATOM      3  C3  DEN d   1      -2.243  -6.000  -4.600  0.00  0.00     0.027 A 
ATOM      4  C4  DEN d   1      -2.215  -4.588  -2.441  0.00  0.00     0.027 A 
ATOM      5  C5  DEN d   1      -2.060  -3.318  -1.933  0.00  0.00    -0.003 A 
ATOM      6  C6  DEN d   1      -1.796  -2.238  -2.733  0.00  0.00     0.001 A 
ATOM      7  C7  DEN d   1      -1.723  -2.402  -4.092  0.00  0.00     0.017 A 
ATOM      8  C8  DEN d   1      -1.870  -3.681  -4.611  0.00  0.00    -0.094 A 
ATOM      9  C9  DEN d   1      -2.150  -4.758  -3.786  0.00  0.00    -0.072 A 
ENDROOT
TORSDOF 0
ENDMDL
