MODEL 1
REMARK minimizedAffinity 8.16277504
REMARK minimizedRMSD -1
REMARK  0 active torsions:
REMARK  status: ('A' for Active; 'I' for Inactive)
ROOT
ATOM      1  C1  DEN d   1       4.032  -4.041   5.399  0.00  0.00     0.130 A 
ATOM      2  C2  DEN d   1       5.252  -3.508   5.999  0.00  0.00    -0.031 A 
ATOM      3  C3  DEN d   1       5.381  -2.094   5.593  0.00  0.00     0.027 A 
ATOM      4  C4  DEN d   1       3.816  -0.684   4.105  0.00  0.00     0.027 A 
ATOM      5  C5  DEN d   1       2.660  -0.704   3.356  0.00  0.00    -0.003 A 
ATOM      6  C6  DEN d   1       1.905  -1.838   3.209  0.00  0.00     0.001 A 
ATOM      7  C7  DEN d   1       2.273  -2.987   3.857  0.00  0.00     0.017 A 
ATOM      8  C8  DEN d   1       3.441  -2.977   4.608  0.00  0.00    -0.094 A 
ATOM      9  C9  DEN d   1       4.184  -1.818   4.754  0.00  0.00    -0.072 A 
ENDROOT
TORSDOF 0
ENDMDL
