MODEL 1
REMARK minimizedAffinity 10.1077318
REMARK minimizedRMSD -1
REMARK  2 active torsions:
REMARK  status: ('A' for Active; 'I' for Inactive)
REMARK    1  A    between atoms: C2'_3  and  C1'_4 
REMARK    2  A    between atoms: C1'_4  and  C1_5 
ROOT
ATOM      1  C1  I4B d   1       0.514   4.638  -2.426  0.00  0.00    -0.075 A 
ATOM      2  C2  I4B d   1       1.201   4.891  -3.587  0.00  0.00     0.003 A 
ATOM      3  C3  I4B d   1       0.580   5.604  -4.641  0.00  0.00     0.002 A 
ATOM      4  C4  I4B d   1      -0.735   6.000  -4.512  0.00  0.00    -0.004 A 
ATOM      5  C5  I4B d   1      -1.423   5.763  -3.325  0.00  0.00     0.002 A 
ATOM      6  C6  I4B d   1      -0.790   5.089  -2.270  0.00  0.00     0.003 A 
ENDROOT
BRANCH   1   7
ATOM      7  C1' I4B d   1       1.189   3.853  -1.346  0.00  0.00     0.060 C 
BRANCH   7   8
ATOM      8  C2' I4B d   1       0.206   2.819  -0.837  0.00  0.00    -0.013 C 
ATOM      9  C4' I4B d   1       0.008   1.714  -1.841  0.00  0.00     0.013 C 
ATOM     10  C3' I4B d   1       0.729   2.282   0.462  0.00  0.00     0.013 C 
ENDBRANCH   7   8
ENDBRANCH   1   7
TORSDOF 2
ENDMDL
