MODEL 1
REMARK minimizedAffinity 9.42763805
REMARK minimizedRMSD -1
REMARK  2 active torsions:
REMARK  status: ('A' for Active; 'I' for Inactive)
REMARK    1  A    between atoms: C2'_3  and  C1'_4 
REMARK    2  A    between atoms: C1'_4  and  C1_5 
ROOT
ATOM      1  C1  I4B d   1       0.402   2.904  -0.637  0.00  0.00    -0.075 A 
ATOM      2  C2  I4B d   1       1.727   2.839  -0.284  0.00  0.00     0.003 A 
ATOM      3  C3  I4B d   1       2.108   2.257   0.950  0.00  0.00     0.002 A 
ATOM      4  C4  I4B d   1       1.135   1.802   1.816  0.00  0.00    -0.004 A 
ATOM      5  C5  I4B d   1      -0.206   1.848   1.446  0.00  0.00     0.002 A 
ATOM      6  C6  I4B d   1      -0.575   2.392   0.207  0.00  0.00     0.003 A 
ENDROOT
BRANCH   1   7
ATOM      7  C1' I4B d   1       0.032   3.555  -1.932  0.00  0.00     0.060 C 
BRANCH   7   8
ATOM      8  C2' I4B d   1      -0.649   4.871  -1.615  0.00  0.00    -0.013 C 
ATOM      9  C4' I4B d   1       0.347   5.998  -1.543  0.00  0.00     0.013 C 
ATOM     10  C3' I4B d   1      -1.679   5.126  -2.675  0.00  0.00     0.013 C 
ENDBRANCH   7   8
ENDBRANCH   1   7
TORSDOF 2
ENDMDL
