MODEL 1
REMARK minimizedAffinity -2.69631195
REMARK minimizedRMSD -1
REMARK  2 active torsions:
REMARK  status: ('A' for Active; 'I' for Inactive)
REMARK    1  A    between atoms: C2'_3  and  C1'_4 
REMARK    2  A    between atoms: C1'_4  and  C1_5 
ROOT
ATOM      1  C1  I4B d   1       0.481   3.217  -0.054  0.00  0.00    -0.075 A 
ATOM      2  C2  I4B d   1       0.148   2.823   1.219  0.00  0.00     0.003 A 
ATOM      3  C3  I4B d   1       1.091   2.936   2.269  0.00  0.00     0.002 A 
ATOM      4  C4  I4B d   1       2.362   3.396   1.995  0.00  0.00    -0.004 A 
ATOM      5  C5  I4B d   1       2.691   3.816   0.709  0.00  0.00     0.002 A 
ATOM      6  C6  I4B d   1       1.741   3.738  -0.319  0.00  0.00     0.003 A 
ENDROOT
BRANCH   1   7
ATOM      7  C1' I4B d   1      -0.528   3.053  -1.146  0.00  0.00     0.060 C 
BRANCH   7   8
ATOM      8  C2' I4B d   1      -0.721   1.570  -1.385  0.00  0.00    -0.013 C 
ATOM      9  C4' I4B d   1      -0.006   0.752  -0.341  0.00  0.00     0.013 C 
ATOM     10  C3' I4B d   1      -2.194   1.288  -1.378  0.00  0.00     0.013 C 
ENDBRANCH   7   8
ENDBRANCH   1   7
TORSDOF 2
ENDMDL
