MODEL 1
REMARK minimizedAffinity 0.769584179
REMARK minimizedRMSD -1
REMARK  2 active torsions:
REMARK  status: ('A' for Active; 'I' for Inactive)
REMARK    1  A    between atoms: C2'_3  and  C1'_4 
REMARK    2  A    between atoms: C1'_4  and  C1_5 
ROOT
ATOM      1  C1  I4B d   1       0.304   2.966  -0.105  0.00  0.00    -0.075 A 
ATOM      2  C2  I4B d   1      -0.137   3.829  -1.077  0.00  0.00     0.003 A 
ATOM      3  C3  I4B d   1       0.454   5.108  -1.216  0.00  0.00     0.002 A 
ATOM      4  C4  I4B d   1       1.442   5.499  -0.336  0.00  0.00    -0.004 A 
ATOM      5  C5  I4B d   1       1.904   4.614   0.634  0.00  0.00     0.002 A 
ATOM      6  C6  I4B d   1       1.340   3.335   0.743  0.00  0.00     0.003 A 
ENDROOT
BRANCH   1   7
ATOM      7  C1' I4B d   1      -0.365   1.635   0.035  0.00  0.00     0.060 C 
BRANCH   7   8
ATOM      8  C2' I4B d   1      -1.046   1.314  -1.280  0.00  0.00    -0.013 C 
ATOM      9  C4' I4B d   1      -0.190   0.413  -2.130  0.00  0.00     0.013 C 
ATOM     10  C3' I4B d   1      -2.367   0.675  -0.973  0.00  0.00     0.013 C 
ENDBRANCH   7   8
ENDBRANCH   1   7
TORSDOF 2
ENDMDL
