MODEL 1
REMARK minimizedAffinity -1.03379989
REMARK minimizedRMSD -1
REMARK  2 active torsions:
REMARK  status: ('A' for Active; 'I' for Inactive)
REMARK    1  A    between atoms: C2'_3  and  C1'_4 
REMARK    2  A    between atoms: C1'_4  and  C1_5 
ROOT
ATOM      1  C1  I4B d   1       3.478  -3.111  -1.605  0.00  0.00    -0.075 A 
ATOM      2  C2  I4B d   1       3.921  -1.882  -2.027  0.00  0.00     0.003 A 
ATOM      3  C3  I4B d   1       5.138  -1.769  -2.741  0.00  0.00     0.002 A 
ATOM      4  C4  I4B d   1       5.902  -2.896  -2.965  0.00  0.00    -0.004 A 
ATOM      5  C5  I4B d   1       5.440  -4.145  -2.557  0.00  0.00     0.002 A 
ATOM      6  C6  I4B d   1       4.215  -4.255  -1.883  0.00  0.00     0.003 A 
ENDROOT
BRANCH   1   7
ATOM      7  C1' I4B d   1       2.204  -3.189  -0.826  0.00  0.00     0.060 C 
BRANCH   7   8
ATOM      8  C2' I4B d   1       1.794  -4.646  -0.748  0.00  0.00    -0.013 C 
ATOM      9  C4' I4B d   1       2.250  -5.273   0.543  0.00  0.00     0.013 C 
ATOM     10  C3' I4B d   1       0.302  -4.714  -0.886  0.00  0.00     0.013 C 
ENDBRANCH   7   8
ENDBRANCH   1   7
TORSDOF 2
ENDMDL
