MODEL 1
REMARK minimizedAffinity 6.47497797
REMARK minimizedRMSD -1
REMARK  2 active torsions:
REMARK  status: ('A' for Active; 'I' for Inactive)
REMARK    1  A    between atoms: C2'_3  and  C1'_4 
REMARK    2  A    between atoms: C1'_4  and  C1_5 
ROOT
ATOM      1  C1  I4B d   1       4.174  -4.504  -1.429  0.00  0.00    -0.075 A 
ATOM      2  C2  I4B d   1       3.091  -5.208  -0.966  0.00  0.00     0.003 A 
ATOM      3  C3  I4B d   1       2.316  -5.991  -1.856  0.00  0.00     0.002 A 
ATOM      4  C4  I4B d   1       2.628  -6.000  -3.201  0.00  0.00    -0.004 A 
ATOM      5  C5  I4B d   1       3.740  -5.303  -3.665  0.00  0.00     0.002 A 
ATOM      6  C6  I4B d   1       4.525  -4.560  -2.772  0.00  0.00     0.003 A 
ENDROOT
BRANCH   1   7
ATOM      7  C1' I4B d   1       4.950  -3.661  -0.468  0.00  0.00     0.060 C 
BRANCH   7   8
ATOM      8  C2' I4B d   1       4.691  -2.207  -0.806  0.00  0.00    -0.013 C 
ATOM      9  C4' I4B d   1       3.746  -2.079  -1.971  0.00  0.00     0.013 C 
ATOM     10  C3' I4B d   1       4.136  -1.539   0.417  0.00  0.00     0.013 C 
ENDBRANCH   7   8
ENDBRANCH   1   7
TORSDOF 2
ENDMDL
