MODEL 1
REMARK minimizedAffinity 10.6096573
REMARK minimizedRMSD -1
REMARK  2 active torsions:
REMARK  status: ('A' for Active; 'I' for Inactive)
REMARK    1  A    between atoms: C2'_3  and  C1'_4 
REMARK    2  A    between atoms: C1'_4  and  C1_5 
ROOT
ATOM      1  C1  I4B d   1       0.363   2.788   0.481  0.00  0.00    -0.075 A 
ATOM      2  C2  I4B d   1       0.665   4.058   0.056  0.00  0.00     0.003 A 
ATOM      3  C3  I4B d   1       0.383   4.450  -1.275  0.00  0.00     0.002 A 
ATOM      4  C4  I4B d   1      -0.151   3.532  -2.156  0.00  0.00    -0.004 A 
ATOM      5  C5  I4B d   1      -0.478   2.252  -1.717  0.00  0.00     0.002 A 
ATOM      6  C6  I4B d   1      -0.231   1.881  -0.387  0.00  0.00     0.003 A 
ENDROOT
BRANCH   1   7
ATOM      7  C1' I4B d   1       0.704   2.398   1.884  0.00  0.00     0.060 C 
BRANCH   7   8
ATOM      8  C2' I4B d   1      -0.327   1.391   2.352  0.00  0.00    -0.013 C 
ATOM      9  C4' I4B d   1       0.043   0.815   3.693  0.00  0.00     0.013 C 
ATOM     10  C3' I4B d   1      -1.657   2.083   2.408  0.00  0.00     0.013 C 
ENDBRANCH   7   8
ENDBRANCH   1   7
TORSDOF 2
ENDMDL
