MODEL 1
REMARK minimizedAffinity 4.46557808
REMARK minimizedRMSD -1
REMARK  2 active torsions:
REMARK  status: ('A' for Active; 'I' for Inactive)
REMARK    1  A    between atoms: C2'_3  and  C1'_4 
REMARK    2  A    between atoms: C1'_4  and  C1_5 
ROOT
ATOM      1  C1  I4B d   1       0.249   2.032   0.766  0.00  0.00    -0.075 A 
ATOM      2  C2  I4B d   1      -0.015   2.350   2.075  0.00  0.00     0.003 A 
ATOM      3  C3  I4B d   1      -0.047   1.335   3.063  0.00  0.00     0.002 A 
ATOM      4  C4  I4B d   1       0.139   0.019   2.691  0.00  0.00    -0.004 A 
ATOM      5  C5  I4B d   1       0.429  -0.298   1.367  0.00  0.00     0.002 A 
ATOM      6  C6  I4B d   1       0.497   0.716   0.400  0.00  0.00     0.003 A 
ENDROOT
BRANCH   1   7
ATOM      7  C1' I4B d   1       0.242   3.125  -0.256  0.00  0.00     0.060 C 
BRANCH   7   8
ATOM      8  C2' I4B d   1       0.491   4.436   0.461  0.00  0.00    -0.013 C 
ATOM      9  C4' I4B d   1       1.884   4.491   1.030  0.00  0.00     0.013 C 
ATOM     10  C3' I4B d   1       0.261   5.549  -0.517  0.00  0.00     0.013 C 
ENDBRANCH   7   8
ENDBRANCH   1   7
TORSDOF 2
ENDMDL
