MODEL 1
REMARK minimizedAffinity 1.22835279
REMARK minimizedRMSD -1
REMARK  0 active torsions:
REMARK  status: ('A' for Active; 'I' for Inactive)
ROOT
ATOM      1  C1  DEN d   1       2.343   3.059   2.261  0.00  0.00     0.130 A 
ATOM      2  C2  DEN d   1       3.304   3.993   1.681  0.00  0.00    -0.031 A 
ATOM      3  C3  DEN d   1       3.058   4.055   0.226  0.00  0.00     0.027 A 
ATOM      4  C4  DEN d   1       1.289   2.807  -1.176  0.00  0.00     0.027 A 
ATOM      5  C5  DEN d   1       0.256   1.898  -1.128  0.00  0.00    -0.003 A 
ATOM      6  C6  DEN d   1      -0.128   1.291   0.038  0.00  0.00     0.001 A 
ATOM      7  C7  DEN d   1       0.495   1.620   1.212  0.00  0.00     0.017 A 
ATOM      8  C8  DEN d   1       1.543   2.531   1.171  0.00  0.00    -0.094 A 
ATOM      9  C9  DEN d   1       1.908   3.143  -0.016  0.00  0.00    -0.072 A 
ENDROOT
TORSDOF 0
ENDMDL
