MODEL 1
REMARK minimizedAffinity 1.17083979
REMARK minimizedRMSD -1
REMARK  0 active torsions:
REMARK  status: ('A' for Active; 'I' for Inactive)
ROOT
ATOM      1  C1  DEN d   1       0.170  -0.642  -0.171  0.00  0.00     0.130 A 
ATOM      2  C2  DEN d   1      -0.624   0.070   0.827  0.00  0.00    -0.031 A 
ATOM      3  C3  DEN d   1      -0.509   1.517   0.554  0.00  0.00     0.027 A 
ATOM      4  C4  DEN d   1       0.810   2.717  -1.310  0.00  0.00     0.027 A 
ATOM      5  C5  DEN d   1       1.647   2.534  -2.389  0.00  0.00    -0.003 A 
ATOM      6  C6  DEN d   1       2.073   1.293  -2.781  0.00  0.00     0.001 A 
ATOM      7  C7  DEN d   1       1.628   0.181  -2.115  0.00  0.00     0.017 A 
ATOM      8  C8  DEN d   1       0.791   0.358  -1.022  0.00  0.00    -0.094 A 
ATOM      9  C9  DEN d   1       0.361   1.620  -0.649  0.00  0.00    -0.072 A 
ENDROOT
TORSDOF 0
ENDMDL
