MODEL 1
REMARK minimizedAffinity 7.20799494
REMARK minimizedRMSD -1
REMARK  0 active torsions:
REMARK  status: ('A' for Active; 'I' for Inactive)
ROOT
ATOM      1  C1  DEN d   1       3.331   5.928  -5.977  0.00  0.00     0.130 A 
ATOM      2  C2  DEN d   1       4.748   5.573  -5.975  0.00  0.00    -0.031 A 
ATOM      3  C3  DEN d   1       4.849   4.100  -5.975  0.00  0.00     0.027 A 
ATOM      4  C4  DEN d   1       2.961   2.343  -5.985  0.00  0.00     0.027 A 
ATOM      5  C5  DEN d   1       1.596   2.163  -5.977  0.00  0.00    -0.003 A 
ATOM      6  C6  DEN d   1       0.720   3.216  -5.934  0.00  0.00     0.001 A 
ATOM      7  C7  DEN d   1       1.201   4.499  -5.944  0.00  0.00     0.017 A 
ATOM      8  C8  DEN d   1       2.576   4.688  -5.945  0.00  0.00    -0.094 A 
ATOM      9  C9  DEN d   1       3.445   3.611  -6.000  0.00  0.00    -0.072 A 
ENDROOT
TORSDOF 0
ENDMDL
