MODEL 1
REMARK minimizedAffinity -2.83249712
REMARK minimizedRMSD -1
REMARK  0 active torsions:
REMARK  status: ('A' for Active; 'I' for Inactive)
ROOT
ATOM      1  C1  DEN d   1       0.033   4.615  -5.984  0.00  0.00     0.130 A 
ATOM      2  C2  DEN d   1       0.321   3.184  -5.944  0.00  0.00    -0.031 A 
ATOM      3  C3  DEN d   1      -0.966   2.460  -5.932  0.00  0.00     0.027 A 
ATOM      4  C4  DEN d   1      -3.363   3.411  -5.976  0.00  0.00     0.027 A 
ATOM      5  C5  DEN d   1      -4.112   4.567  -6.000  0.00  0.00    -0.003 A 
ATOM      6  C6  DEN d   1      -3.537   5.810  -5.986  0.00  0.00     0.001 A 
ATOM      7  C7  DEN d   1      -2.172   5.927  -5.993  0.00  0.00     0.017 A 
ATOM      8  C8  DEN d   1      -1.410   4.766  -5.961  0.00  0.00    -0.094 A 
ATOM      9  C9  DEN d   1      -2.011   3.518  -5.988  0.00  0.00    -0.072 A 
ENDROOT
TORSDOF 0
ENDMDL
