MODEL 1
REMARK minimizedAffinity -2.78888798
REMARK minimizedRMSD -1
REMARK  0 active torsions:
REMARK  status: ('A' for Active; 'I' for Inactive)
ROOT
ATOM      1  C1  DEN d   1      -0.494   6.000  -5.941  0.00  0.00     0.130 A 
ATOM      2  C2  DEN d   1       0.503   4.933  -5.912  0.00  0.00    -0.031 A 
ATOM      3  C3  DEN d   1      -0.211   3.641  -5.920  0.00  0.00     0.027 A 
ATOM      4  C4  DEN d   1      -2.749   3.189  -5.979  0.00  0.00     0.027 A 
ATOM      5  C5  DEN d   1      -3.994   3.779  -6.000  0.00  0.00    -0.003 A 
ATOM      6  C6  DEN d   1      -4.159   5.138  -5.968  0.00  0.00     0.001 A 
ATOM      7  C7  DEN d   1      -3.059   5.955  -5.959  0.00  0.00     0.017 A 
ATOM      8  C8  DEN d   1      -1.801   5.368  -5.931  0.00  0.00    -0.094 A 
ATOM      9  C9  DEN d   1      -1.655   3.992  -5.976  0.00  0.00    -0.072 A 
ENDROOT
TORSDOF 0
ENDMDL
