MODEL 1
REMARK minimizedAffinity -3.96512556
REMARK minimizedRMSD -1
REMARK  0 active torsions:
REMARK  status: ('A' for Active; 'I' for Inactive)
ROOT
ATOM      1  C1  DEN d   1      -0.319   3.032  -6.000  0.00  0.00     0.130 A 
ATOM      2  C2  DEN d   1       0.728   4.050  -5.991  0.00  0.00    -0.031 A 
ATOM      3  C3  DEN d   1       0.077   5.375  -5.950  0.00  0.00     0.027 A 
ATOM      4  C4  DEN d   1      -2.438   5.945  -5.895  0.00  0.00     0.027 A 
ATOM      5  C5  DEN d   1      -3.709   5.416  -5.900  0.00  0.00    -0.003 A 
ATOM      6  C6  DEN d   1      -3.938   4.067  -5.972  0.00  0.00     0.001 A 
ATOM      7  C7  DEN d   1      -2.879   3.199  -5.997  0.00  0.00     0.017 A 
ATOM      8  C8  DEN d   1      -1.594   3.726  -6.000  0.00  0.00    -0.094 A 
ATOM      9  C9  DEN d   1      -1.383   5.092  -5.914  0.00  0.00    -0.072 A 
ENDROOT
TORSDOF 0
ENDMDL
