MODEL 1
REMARK minimizedAffinity -0.513446033
REMARK minimizedRMSD -1
REMARK  0 active torsions:
REMARK  status: ('A' for Active; 'I' for Inactive)
ROOT
ATOM      1  C1  DEN d   1      -0.022   2.725  -5.965  0.00  0.00     0.130 A 
ATOM      2  C2  DEN d   1       1.041   3.727  -5.987  0.00  0.00    -0.031 A 
ATOM      3  C3  DEN d   1       0.410   5.062  -5.999  0.00  0.00     0.027 A 
ATOM      4  C4  DEN d   1      -2.096   5.672  -5.981  0.00  0.00     0.027 A 
ATOM      5  C5  DEN d   1      -3.376   5.162  -5.975  0.00  0.00    -0.003 A 
ATOM      6  C6  DEN d   1      -3.625   3.816  -5.999  0.00  0.00     0.001 A 
ATOM      7  C7  DEN d   1      -2.579   2.931  -5.985  0.00  0.00     0.017 A 
ATOM      8  C8  DEN d   1      -1.286   3.438  -5.998  0.00  0.00    -0.094 A 
ATOM      9  C9  DEN d   1      -1.055   4.802  -5.962  0.00  0.00    -0.072 A 
ENDROOT
TORSDOF 0
ENDMDL
