MODEL 1
REMARK minimizedAffinity -1.54063892
REMARK minimizedRMSD -1
REMARK  0 active torsions:
REMARK  status: ('A' for Active; 'I' for Inactive)
ROOT
ATOM      1  C1  DEN d   1      -0.015   2.230  -5.973  0.00  0.00     0.130 A 
ATOM      2  C2  DEN d   1       1.182   3.066  -5.996  0.00  0.00    -0.031 A 
ATOM      3  C3  DEN d   1       0.752   4.478  -6.000  0.00  0.00     0.027 A 
ATOM      4  C4  DEN d   1      -1.638   5.447  -5.969  0.00  0.00     0.027 A 
ATOM      5  C5  DEN d   1      -2.978   5.129  -5.960  0.00  0.00    -0.003 A 
ATOM      6  C6  DEN d   1      -3.421   3.834  -5.988  0.00  0.00     0.001 A 
ATOM      7  C7  DEN d   1      -2.515   2.806  -5.982  0.00  0.00     0.017 A 
ATOM      8  C8  DEN d   1      -1.163   3.119  -5.999  0.00  0.00    -0.094 A 
ATOM      9  C9  DEN d   1      -0.734   4.435  -5.958  0.00  0.00    -0.072 A 
ENDROOT
TORSDOF 0
ENDMDL
