MODEL 1
REMARK minimizedAffinity 0.823592186
REMARK minimizedRMSD -1
REMARK  0 active torsions:
REMARK  status: ('A' for Active; 'I' for Inactive)
ROOT
ATOM      1  C1  DEN d   1       0.048   4.353  -6.000  0.00  0.00     0.130 A 
ATOM      2  C2  DEN d   1       0.148   2.896  -5.966  0.00  0.00    -0.031 A 
ATOM      3  C3  DEN d   1      -1.222   2.345  -5.951  0.00  0.00     0.027 A 
ATOM      4  C4  DEN d   1      -3.476   3.599  -5.980  0.00  0.00     0.027 A 
ATOM      5  C5  DEN d   1      -4.068   4.842  -5.996  0.00  0.00    -0.003 A 
ATOM      6  C6  DEN d   1      -3.337   6.000  -5.981  0.00  0.00     0.001 A 
ATOM      7  C7  DEN d   1      -1.969   5.939  -5.994  0.00  0.00     0.017 A 
ATOM      8  C8  DEN d   1      -1.364   4.689  -5.970  0.00  0.00    -0.094 A 
ATOM      9  C9  DEN d   1      -2.120   3.530  -5.998  0.00  0.00    -0.072 A 
ENDROOT
TORSDOF 0
ENDMDL
