MODEL 1
REMARK minimizedAffinity 5.47387218
REMARK minimizedRMSD -1
REMARK  0 active torsions:
REMARK  status: ('A' for Active; 'I' for Inactive)
ROOT
ATOM      1  C1  DEN d   1      -3.045  -5.806  -1.299  0.00  0.00     0.130 A 
ATOM      2  C2  DEN d   1      -4.084  -5.238  -0.445  0.00  0.00    -0.031 A 
ATOM      3  C3  DEN d   1      -3.773  -3.810  -0.235  0.00  0.00     0.027 A 
ATOM      4  C4  DEN d   1      -1.795  -2.430  -1.147  0.00  0.00     0.027 A 
ATOM      5  C5  DEN d   1      -0.647  -2.479  -1.908  0.00  0.00    -0.003 A 
ATOM      6  C6  DEN d   1      -0.204  -3.639  -2.486  0.00  0.00     0.001 A 
ATOM      7  C7  DEN d   1      -0.937  -4.788  -2.350  0.00  0.00     0.017 A 
ATOM      8  C8  DEN d   1      -2.091  -4.748  -1.578  0.00  0.00    -0.094 A 
ATOM      9  C9  DEN d   1      -2.529  -3.563  -1.012  0.00  0.00    -0.072 A 
ENDROOT
TORSDOF 0
ENDMDL
