MODEL 1
REMARK minimizedAffinity 1.9756602
REMARK minimizedRMSD -1
REMARK  0 active torsions:
REMARK  status: ('A' for Active; 'I' for Inactive)
ROOT
ATOM      1  C1  DEN d   1       0.046   5.508  -5.998  0.00  0.00     0.130 A 
ATOM      2  C2  DEN d   1       0.816   4.268  -5.947  0.00  0.00    -0.031 A 
ATOM      3  C3  DEN d   1      -0.137   3.141  -5.916  0.00  0.00     0.027 A 
ATOM      4  C4  DEN d   1      -2.715   3.194  -5.948  0.00  0.00     0.027 A 
ATOM      5  C5  DEN d   1      -3.821   4.015  -5.977  0.00  0.00    -0.003 A 
ATOM      6  C6  DEN d   1      -3.716   5.380  -5.980  0.00  0.00     0.001 A 
ATOM      7  C7  DEN d   1      -2.478   5.966  -6.000  0.00  0.00     0.017 A 
ATOM      8  C8  DEN d   1      -1.359   5.145  -5.964  0.00  0.00    -0.094 A 
ATOM      9  C9  DEN d   1      -1.485   3.766  -5.973  0.00  0.00    -0.072 A 
ENDROOT
TORSDOF 0
ENDMDL
