MODEL 1
REMARK minimizedAffinity 2.42288709
REMARK minimizedRMSD -1
REMARK  0 active torsions:
REMARK  status: ('A' for Active; 'I' for Inactive)
ROOT
ATOM      1  C1  DEN d   1      -0.402   4.800  -5.902  0.00  0.00     0.130 A 
ATOM      2  C2  DEN d   1      -0.043   3.386  -5.954  0.00  0.00    -0.031 A 
ATOM      3  C3  DEN d   1      -1.292   2.599  -5.999  0.00  0.00     0.027 A 
ATOM      4  C4  DEN d   1      -3.734   3.431  -6.000  0.00  0.00     0.027 A 
ATOM      5  C5  DEN d   1      -4.540   4.547  -5.954  0.00  0.00    -0.003 A 
ATOM      6  C6  DEN d   1      -4.028   5.813  -5.854  0.00  0.00     0.001 A 
ATOM      7  C7  DEN d   1      -2.670   5.998  -5.842  0.00  0.00     0.017 A 
ATOM      8  C8  DEN d   1      -1.852   4.877  -5.881  0.00  0.00    -0.094 A 
ATOM      9  C9  DEN d   1      -2.388   3.606  -5.994  0.00  0.00    -0.072 A 
ENDROOT
TORSDOF 0
ENDMDL
