MODEL 1
REMARK minimizedAffinity -1.7746464
REMARK minimizedRMSD -1
REMARK  0 active torsions:
REMARK  status: ('A' for Active; 'I' for Inactive)
ROOT
ATOM      1  C1  DEN d   1      -2.266   2.802  -6.000  0.00  0.00     0.130 A 
ATOM      2  C2  DEN d   1      -3.395   3.727  -5.964  0.00  0.00    -0.031 A 
ATOM      3  C3  DEN d   1      -2.858   5.102  -5.949  0.00  0.00     0.027 A 
ATOM      4  C4  DEN d   1      -0.401   5.886  -5.981  0.00  0.00     0.027 A 
ATOM      5  C5  DEN d   1       0.911   5.466  -6.000  0.00  0.00    -0.003 A 
ATOM      6  C6  DEN d   1       1.253   4.140  -5.986  0.00  0.00     0.001 A 
ATOM      7  C7  DEN d   1       0.271   3.185  -5.997  0.00  0.00     0.017 A 
ATOM      8  C8  DEN d   1      -1.053   3.600  -5.971  0.00  0.00    -0.094 A 
ATOM      9  C9  DEN d   1      -1.380   4.946  -5.998  0.00  0.00    -0.072 A 
ENDROOT
TORSDOF 0
ENDMDL
