MODEL 1
REMARK minimizedAffinity -2.28496361
REMARK minimizedRMSD -1
REMARK  0 active torsions:
REMARK  status: ('A' for Active; 'I' for Inactive)
ROOT
ATOM      1  C1  DEN d   1      -0.038   2.203  -5.928  0.00  0.00     0.130 A 
ATOM      2  C2  DEN d   1       1.093   3.127  -5.957  0.00  0.00    -0.031 A 
ATOM      3  C3  DEN d   1       0.558   4.502  -5.990  0.00  0.00     0.027 A 
ATOM      4  C4  DEN d   1      -1.899   5.288  -5.994  0.00  0.00     0.027 A 
ATOM      5  C5  DEN d   1      -3.211   4.869  -5.988  0.00  0.00    -0.003 A 
ATOM      6  C6  DEN d   1      -3.555   3.543  -5.996  0.00  0.00     0.001 A 
ATOM      7  C7  DEN d   1      -2.574   2.588  -5.964  0.00  0.00     0.017 A 
ATOM      8  C8  DEN d   1      -1.249   3.002  -5.978  0.00  0.00    -0.094 A 
ATOM      9  C9  DEN d   1      -0.922   4.347  -5.958  0.00  0.00    -0.072 A 
ENDROOT
TORSDOF 0
ENDMDL
