MODEL 1
REMARK minimizedAffinity -1.1839391
REMARK minimizedRMSD -1
REMARK  0 active torsions:
REMARK  status: ('A' for Active; 'I' for Inactive)
ROOT
ATOM      1  C1  DEN d   1      -3.773   3.797  -3.630  0.00  0.00     0.130 A 
ATOM      2  C2  DEN d   1      -4.567   3.861  -4.853  0.00  0.00    -0.031 A 
ATOM      3  C3  DEN d   1      -3.637   3.896  -6.000  0.00  0.00     0.027 A 
ATOM      4  C4  DEN d   1      -1.058   3.854  -6.000  0.00  0.00     0.027 A 
ATOM      5  C5  DEN d   1       0.063   3.814  -5.202  0.00  0.00    -0.003 A 
ATOM      6  C6  DEN d   1      -0.013   3.801  -3.834  0.00  0.00     0.001 A 
ATOM      7  C7  DEN d   1      -1.239   3.781  -3.223  0.00  0.00     0.017 A 
ATOM      8  C8  DEN d   1      -2.375   3.828  -4.021  0.00  0.00    -0.094 A 
ATOM      9  C9  DEN d   1      -2.277   3.829  -5.402  0.00  0.00    -0.072 A 
ENDROOT
TORSDOF 0
ENDMDL
