MODEL 1
REMARK minimizedAffinity -2.54957867
REMARK minimizedRMSD -1
REMARK  0 active torsions:
REMARK  status: ('A' for Active; 'I' for Inactive)
ROOT
ATOM      1  C1  DEN d   1      -3.665   3.838  -5.999  0.00  0.00     0.130 A 
ATOM      2  C2  DEN d   1      -3.939   5.272  -5.963  0.00  0.00    -0.031 A 
ATOM      3  C3  DEN d   1      -2.645   5.984  -5.948  0.00  0.00     0.027 A 
ATOM      4  C4  DEN d   1      -0.257   5.010  -5.981  0.00  0.00     0.027 A 
ATOM      5  C5  DEN d   1       0.481   3.847  -6.000  0.00  0.00    -0.003 A 
ATOM      6  C6  DEN d   1      -0.106   2.610  -5.986  0.00  0.00     0.001 A 
ATOM      7  C7  DEN d   1      -1.472   2.506  -5.997  0.00  0.00     0.017 A 
ATOM      8  C8  DEN d   1      -2.222   3.674  -5.971  0.00  0.00    -0.094 A 
ATOM      9  C9  DEN d   1      -1.611   4.916  -5.998  0.00  0.00    -0.072 A 
ENDROOT
TORSDOF 0
ENDMDL
