MODEL 1
REMARK minimizedAffinity 1.73646414
REMARK minimizedRMSD -1
REMARK  0 active torsions:
REMARK  status: ('A' for Active; 'I' for Inactive)
ROOT
ATOM      1  C1  DEN d   1       1.175   3.401  -5.997  0.00  0.00     0.130 A 
ATOM      2  C2  DEN d   1       0.852   1.977  -5.960  0.00  0.00    -0.031 A 
ATOM      3  C3  DEN d   1      -0.618   1.842  -5.944  0.00  0.00     0.027 A 
ATOM      4  C4  DEN d   1      -2.417   3.690  -5.979  0.00  0.00     0.027 A 
ATOM      5  C5  DEN d   1      -2.628   5.051  -5.999  0.00  0.00    -0.003 A 
ATOM      6  C6  DEN d   1      -1.595   5.950  -5.986  0.00  0.00     0.001 A 
ATOM      7  C7  DEN d   1      -0.302   5.499  -5.997  0.00  0.00     0.017 A 
ATOM      8  C8  DEN d   1      -0.081   4.128  -5.969  0.00  0.00    -0.094 A 
ATOM      9  C9  DEN d   1      -1.139   3.235  -5.995  0.00  0.00    -0.072 A 
ENDROOT
TORSDOF 0
ENDMDL
