MODEL 1
REMARK minimizedAffinity 10.74123
REMARK minimizedRMSD -1
REMARK  0 active torsions:
REMARK  status: ('A' for Active; 'I' for Inactive)
ROOT
ATOM      1  C1  DEN d   1       2.208  -0.402  -5.129  0.00  0.00     0.130 A 
ATOM      2  C2  DEN d   1       2.415   0.755  -5.997  0.00  0.00    -0.031 A 
ATOM      3  C3  DEN d   1       2.453   1.962  -5.147  0.00  0.00     0.027 A 
ATOM      4  C4  DEN d   1       2.219   2.151  -2.585  0.00  0.00     0.027 A 
ATOM      5  C5  DEN d   1       2.017   1.443  -1.421  0.00  0.00    -0.003 A 
ATOM      6  C6  DEN d   1       1.832   0.085  -1.415  0.00  0.00     0.001 A 
ATOM      7  C7  DEN d   1       1.890  -0.613  -2.592  0.00  0.00     0.017 A 
ATOM      8  C8  DEN d   1       2.086   0.095  -3.771  0.00  0.00    -0.094 A 
ATOM      9  C9  DEN d   1       2.283   1.465  -3.755  0.00  0.00    -0.072 A 
ENDROOT
TORSDOF 0
ENDMDL
