MODEL 1
REMARK minimizedAffinity -1.18447983
REMARK minimizedRMSD -1
REMARK  0 active torsions:
REMARK  status: ('A' for Active; 'I' for Inactive)
ROOT
ATOM      1  C1  DEN d   1      -2.988   3.416  -6.000  0.00  0.00     0.130 A 
ATOM      2  C2  DEN d   1      -3.879   4.573  -5.962  0.00  0.00    -0.031 A 
ATOM      3  C3  DEN d   1      -3.045   5.791  -5.943  0.00  0.00     0.027 A 
ATOM      4  C4  DEN d   1      -0.474   5.999  -5.974  0.00  0.00     0.027 A 
ATOM      5  C5  DEN d   1       0.709   5.293  -5.995  0.00  0.00    -0.003 A 
ATOM      6  C6  DEN d   1       0.743   3.924  -5.984  0.00  0.00     0.001 A 
ATOM      7  C7  DEN d   1      -0.430   3.216  -5.998  0.00  0.00     0.017 A 
ATOM      8  C8  DEN d   1      -1.627   3.920  -5.970  0.00  0.00    -0.094 A 
ATOM      9  C9  DEN d   1      -1.640   5.304  -5.993  0.00  0.00    -0.072 A 
ENDROOT
TORSDOF 0
ENDMDL
