MODEL 1
REMARK minimizedAffinity -4.53194571
REMARK minimizedRMSD -1
REMARK  0 active torsions:
REMARK  status: ('A' for Active; 'I' for Inactive)
ROOT
ATOM      1  C1  BNZ d   1       1.505  -2.632   3.324  0.00  0.00     0.000 A 
ATOM      2  C2  BNZ d   1       1.980  -3.917   3.300  0.00  0.00     0.000 A 
ATOM      3  C3  BNZ d   1       1.845  -4.691   2.182  0.00  0.00     0.000 A 
ATOM      4  C4  BNZ d   1       1.200  -4.196   1.106  0.00  0.00     0.000 A 
ATOM      5  C5  BNZ d   1       0.708  -2.906   1.118  0.00  0.00     0.000 A 
ATOM      6  C6  BNZ d   1       0.880  -2.116   2.232  0.00  0.00     0.000 A 
ENDROOT
TORSDOF 0
ENDMDL
