MODEL 1
REMARK minimizedAffinity -2.59733343
REMARK minimizedRMSD -1
REMARK  0 active torsions:
REMARK  status: ('A' for Active; 'I' for Inactive)
ROOT
ATOM      1  C1  BNZ d   1       5.102  -5.922  -4.849  0.00  0.00     0.000 A 
ATOM      2  C2  BNZ d   1       4.357  -5.924  -5.998  0.00  0.00     0.000 A 
ATOM      3  C3  BNZ d   1       2.991  -5.938  -5.946  0.00  0.00     0.000 A 
ATOM      4  C4  BNZ d   1       2.373  -5.991  -4.748  0.00  0.00     0.000 A 
ATOM      5  C5  BNZ d   1       3.111  -6.000  -3.581  0.00  0.00     0.000 A 
ATOM      6  C6  BNZ d   1       4.485  -5.946  -3.636  0.00  0.00     0.000 A 
ENDROOT
TORSDOF 0
ENDMDL
