MODEL 1
REMARK minimizedAffinity 1.1989665
REMARK minimizedRMSD -1
REMARK  0 active torsions:
REMARK  status: ('A' for Active; 'I' for Inactive)
ROOT
ATOM      1  C1  BNZ d   1       0.505  -2.331   0.848  0.00  0.00     0.000 A 
ATOM      2  C2  BNZ d   1      -0.809  -1.961   0.739  0.00  0.00     0.000 A 
ATOM      3  C3  BNZ d   1      -1.376  -1.744  -0.485  0.00  0.00     0.000 A 
ATOM      4  C4  BNZ d   1      -0.620  -1.859  -1.596  0.00  0.00     0.000 A 
ATOM      5  C5  BNZ d   1       0.708  -2.222  -1.503  0.00  0.00     0.000 A 
ATOM      6  C6  BNZ d   1       1.266  -2.477  -0.271  0.00  0.00     0.000 A 
ENDROOT
TORSDOF 0
ENDMDL
