MODEL 1
REMARK minimizedAffinity 0.171709105
REMARK minimizedRMSD -1
REMARK  0 active torsions:
REMARK  status: ('A' for Active; 'I' for Inactive)
ROOT
ATOM      1  C1  BNZ d   1      -5.311   3.918  -0.637  0.00  0.00     0.000 A 
ATOM      2  C2  BNZ d   1      -4.151   3.202  -0.760  0.00  0.00     0.000 A 
ATOM      3  C3  BNZ d   1      -3.659   2.479   0.291  0.00  0.00     0.000 A 
ATOM      4  C4  BNZ d   1      -4.306   2.505   1.474  0.00  0.00     0.000 A 
ATOM      5  C5  BNZ d   1      -5.473   3.230   1.617  0.00  0.00     0.000 A 
ATOM      6  C6  BNZ d   1      -5.985   3.925   0.546  0.00  0.00     0.000 A 
ENDROOT
TORSDOF 0
ENDMDL
