MODEL 1
REMARK minimizedAffinity 4.48453951
REMARK minimizedRMSD -1
REMARK  0 active torsions:
REMARK  status: ('A' for Active; 'I' for Inactive)
ROOT
ATOM      1  C1  BNZ d   1       0.953  -6.000   5.994  0.00  0.00     0.000 A 
ATOM      2  C2  BNZ d   1       0.194  -5.602   4.925  0.00  0.00     0.000 A 
ATOM      3  C3  BNZ d   1       0.770  -4.985   3.850  0.00  0.00     0.000 A 
ATOM      4  C4  BNZ d   1       2.094  -4.730   3.862  0.00  0.00     0.000 A 
ATOM      5  C5  BNZ d   1       2.871  -5.117   4.936  0.00  0.00     0.000 A 
ATOM      6  C6  BNZ d   1       2.294  -5.773   6.000  0.00  0.00     0.000 A 
ENDROOT
TORSDOF 0
ENDMDL
