MODEL 1
REMARK minimizedAffinity -1.42558527
REMARK minimizedRMSD -1
REMARK  0 active torsions:
REMARK  status: ('A' for Active; 'I' for Inactive)
ROOT
ATOM      1  C1  BNZ d   1       2.545  -5.991  -2.521  0.00  0.00     0.000 A 
ATOM      2  C2  BNZ d   1       3.437  -5.999  -1.482  0.00  0.00     0.000 A 
ATOM      3  C3  BNZ d   1       4.783  -5.981  -1.716  0.00  0.00     0.000 A 
ATOM      4  C4  BNZ d   1       5.236  -5.997  -2.986  0.00  0.00     0.000 A 
ATOM      5  C5  BNZ d   1       4.350  -5.999  -4.044  0.00  0.00     0.000 A 
ATOM      6  C6  BNZ d   1       2.995  -5.977  -3.805  0.00  0.00     0.000 A 
ENDROOT
TORSDOF 0
ENDMDL
