MODEL 1
REMARK minimizedAffinity -3.79902339
REMARK minimizedRMSD -1
REMARK  0 active torsions:
REMARK  status: ('A' for Active; 'I' for Inactive)
ROOT
ATOM      1  C   UNL d   1       1.514  -0.722   3.063  0.00  0.00     0.078 C 
ATOM      2  C1  UNL d   1       0.726  -0.345   1.845  0.00  0.00    -0.077 A 
ATOM      3  C2  UNL d   1      -0.671  -0.254   1.889  0.00  0.00    -0.001 A 
ATOM      4  C3  UNL d   1      -1.392   0.088   0.745  0.00  0.00     0.003 A 
ATOM      5  C4  UNL d   1      -0.727   0.341  -0.453  0.00  0.00    -0.005 A 
ATOM      6  C5  UNL d   1       0.663   0.251  -0.507  0.00  0.00     0.003 A 
ATOM      7  C6  UNL d   1       1.386  -0.091   0.636  0.00  0.00    -0.001 A 
ENDROOT
TORSDOF 0
ENDMDL
