MODEL 1
REMARK minimizedAffinity -4.79037189
REMARK minimizedRMSD -1
REMARK  0 active torsions:
REMARK  status: ('A' for Active; 'I' for Inactive)
ROOT
ATOM      1  C   UNL d   1       1.616  -1.176   3.319  0.00  0.00     0.078 C 
ATOM      2  C1  UNL d   1       1.313  -0.826   1.892  0.00  0.00    -0.077 A 
ATOM      3  C2  UNL d   1       2.263  -1.024   0.883  0.00  0.00    -0.001 A 
ATOM      4  C3  UNL d   1       1.970  -0.684  -0.438  0.00  0.00     0.003 A 
ATOM      5  C4  UNL d   1       0.728  -0.142  -0.763  0.00  0.00    -0.005 A 
ATOM      6  C5  UNL d   1      -0.223   0.062   0.235  0.00  0.00     0.003 A 
ATOM      7  C6  UNL d   1       0.068  -0.278   1.557  0.00  0.00    -0.001 A 
ENDROOT
TORSDOF 0
ENDMDL
