MODEL 1
REMARK minimizedAffinity -3.08940482
REMARK minimizedRMSD -1
REMARK  0 active torsions:
REMARK  status: ('A' for Active; 'I' for Inactive)
ROOT
ATOM      1  C   UNL d   1      -0.350   0.093  -2.513  0.00  0.00     0.078 C 
ATOM      2  C1  UNL d   1       0.172  -0.059  -1.116  0.00  0.00    -0.077 A 
ATOM      3  C2  UNL d   1      -0.672   0.099  -0.010  0.00  0.00    -0.001 A 
ATOM      4  C3  UNL d   1      -0.171  -0.036   1.286  0.00  0.00     0.003 A 
ATOM      5  C4  UNL d   1       1.176  -0.328   1.488  0.00  0.00    -0.005 A 
ATOM      6  C5  UNL d   1       2.025  -0.484   0.394  0.00  0.00     0.003 A 
ATOM      7  C6  UNL d   1       1.525  -0.349  -0.903  0.00  0.00    -0.001 A 
ENDROOT
TORSDOF 0
ENDMDL
