MODEL 1
REMARK minimizedAffinity -0.514990032
REMARK minimizedRMSD -1
REMARK  0 active torsions:
REMARK  status: ('A' for Active; 'I' for Inactive)
ROOT
ATOM      1  C   UNL d   1       0.078   2.913  -0.440  0.00  0.00     0.078 C 
ATOM      2  C1  UNL d   1       0.479   3.363  -1.813  0.00  0.00    -0.077 A 
ATOM      3  C2  UNL d   1       0.400   2.495  -2.909  0.00  0.00    -0.001 A 
ATOM      4  C3  UNL d   1       0.786   2.925  -4.180  0.00  0.00     0.003 A 
ATOM      5  C4  UNL d   1       1.253   4.224  -4.366  0.00  0.00    -0.005 A 
ATOM      6  C5  UNL d   1       1.337   5.095  -3.282  0.00  0.00     0.003 A 
ATOM      7  C6  UNL d   1       0.952   4.667  -2.010  0.00  0.00    -0.001 A 
ENDROOT
TORSDOF 0
ENDMDL
