MODEL 1
REMARK minimizedAffinity -4.02761507
REMARK minimizedRMSD -1
REMARK  0 active torsions:
REMARK  status: ('A' for Active; 'I' for Inactive)
ROOT
ATOM      1  C   UNL d   1      -1.626   0.400   0.079  0.00  0.00     0.078 C 
ATOM      2  C1  UNL d   1      -0.219  -0.117   0.133  0.00  0.00    -0.077 A 
ATOM      3  C2  UNL d   1       0.417  -0.601  -1.017  0.00  0.00    -0.001 A 
ATOM      4  C3  UNL d   1       1.723  -1.088  -0.949  0.00  0.00     0.003 A 
ATOM      5  C4  UNL d   1       2.405  -1.096   0.266  0.00  0.00    -0.005 A 
ATOM      6  C5  UNL d   1       1.780  -0.619   1.416  0.00  0.00     0.003 A 
ATOM      7  C6  UNL d   1       0.473  -0.131   1.351  0.00  0.00    -0.001 A 
ENDROOT
TORSDOF 0
ENDMDL
