MODEL 1
REMARK minimizedAffinity -3.88304114
REMARK minimizedRMSD -1
REMARK  0 active torsions:
REMARK  status: ('A' for Active; 'I' for Inactive)
ROOT
ATOM      1  C   UNL d   1      -0.619   1.579  -1.328  0.00  0.00     0.078 C 
ATOM      2  C1  UNL d   1      -0.323   0.699  -0.151  0.00  0.00    -0.077 A 
ATOM      3  C2  UNL d   1       0.756  -0.193  -0.170  0.00  0.00    -0.001 A 
ATOM      4  C3  UNL d   1       1.014  -1.013   0.930  0.00  0.00     0.003 A 
ATOM      5  C4  UNL d   1       0.197  -0.950   2.057  0.00  0.00    -0.005 A 
ATOM      6  C5  UNL d   1      -0.880  -0.066   2.084  0.00  0.00     0.003 A 
ATOM      7  C6  UNL d   1      -1.140   0.754   0.985  0.00  0.00    -0.001 A 
ENDROOT
TORSDOF 0
ENDMDL
