MODEL 1
REMARK minimizedAffinity -4.14000416
REMARK minimizedRMSD -1
REMARK  0 active torsions:
REMARK  status: ('A' for Active; 'I' for Inactive)
ROOT
ATOM      1  C   UNL d   1      -0.317  -0.591   2.241  0.00  0.00     0.078 C 
ATOM      2  C1  UNL d   1      -0.392  -0.084   0.832  0.00  0.00    -0.077 A 
ATOM      3  C2  UNL d   1      -1.333  -0.595  -0.070  0.00  0.00    -0.001 A 
ATOM      4  C3  UNL d   1      -1.385  -0.120  -1.381  0.00  0.00     0.003 A 
ATOM      5  C4  UNL d   1      -0.496   0.867  -1.804  0.00  0.00    -0.005 A 
ATOM      6  C5  UNL d   1       0.446   1.380  -0.914  0.00  0.00     0.003 A 
ATOM      7  C6  UNL d   1       0.499   0.906   0.398  0.00  0.00    -0.001 A 
ENDROOT
TORSDOF 0
ENDMDL
