MODEL 1
REMARK minimizedAffinity -4.56519699
REMARK minimizedRMSD -1
REMARK  0 active torsions:
REMARK  status: ('A' for Active; 'I' for Inactive)
ROOT
ATOM      1  C   UNL d   1      -1.858  -0.317   0.952  0.00  0.00     0.078 C 
ATOM      2  C1  UNL d   1      -0.364  -0.324   1.070  0.00  0.00    -0.077 A 
ATOM      3  C2  UNL d   1       0.447   0.032  -0.015  0.00  0.00    -0.001 A 
ATOM      4  C3  UNL d   1       1.837   0.012   0.107  0.00  0.00     0.003 A 
ATOM      5  C4  UNL d   1       2.429  -0.364   1.311  0.00  0.00    -0.005 A 
ATOM      6  C5  UNL d   1       1.631  -0.722   2.395  0.00  0.00     0.003 A 
ATOM      7  C6  UNL d   1       0.241  -0.702   2.276  0.00  0.00    -0.001 A 
ENDROOT
TORSDOF 0
ENDMDL
