MODEL 1
REMARK minimizedAffinity -4.73433304
REMARK minimizedRMSD -1
REMARK  0 active torsions:
REMARK  status: ('A' for Active; 'I' for Inactive)
ROOT
ATOM      1  C   UNL d   1      -2.463   3.586  -3.004  0.00  0.00     0.078 C 
ATOM      2  C1  UNL d   1      -3.692   2.763  -3.251  0.00  0.00    -0.077 A 
ATOM      3  C2  UNL d   1      -3.699   1.385  -3.001  0.00  0.00    -0.001 A 
ATOM      4  C3  UNL d   1      -4.846   0.629  -3.244  0.00  0.00     0.003 A 
ATOM      5  C4  UNL d   1      -5.996   1.242  -3.740  0.00  0.00    -0.005 A 
ATOM      6  C5  UNL d   1      -5.997   2.612  -3.994  0.00  0.00     0.003 A 
ATOM      7  C6  UNL d   1      -4.850   3.370  -3.751  0.00  0.00    -0.001 A 
ENDROOT
TORSDOF 0
ENDMDL
