MODEL 1
REMARK minimizedAffinity 0.688443065
REMARK minimizedRMSD -1
REMARK  2 active torsions:
REMARK  status: ('A' for Active; 'I' for Inactive)
REMARK    1  A    between atoms: C1_2  and  C2_3 
REMARK    2  A    between atoms: C2_3  and  C3_4 
ROOT
ATOM      1  C3  UNL d   1       0.616   0.246   0.327  0.00  0.00    -0.075 A 
ATOM      2  C4  UNL d   1       0.775   1.605   0.635  0.00  0.00     0.002 A 
ATOM      3  C5  UNL d   1       0.874   2.025   1.962  0.00  0.00     0.002 A 
ATOM      4  C6  UNL d   1       0.804   1.094   2.996  0.00  0.00    -0.004 A 
ATOM      5  C7  UNL d   1       0.628  -0.256   2.703  0.00  0.00     0.002 A 
ATOM      6  C8  UNL d   1       0.534  -0.679   1.376  0.00  0.00     0.002 A 
ENDROOT
BRANCH   1   7
ATOM      7  C2  UNL d   1       0.538  -0.218  -1.108  0.00  0.00     0.056 C 
BRANCH   7   8
ATOM      8  C1  UNL d   1      -0.675   0.322  -1.873  0.00  0.00     0.007 C 
ATOM      9  C   UNL d   1      -0.317   1.412  -2.874  0.00  0.00     0.009 C 
ENDBRANCH   7   8
ENDBRANCH   1   7
TORSDOF 2
ENDMDL
