MODEL 1
REMARK minimizedAffinity 7.5592165
REMARK minimizedRMSD -1
REMARK  2 active torsions:
REMARK  status: ('A' for Active; 'I' for Inactive)
REMARK    1  A    between atoms: C1_2  and  C2_3 
REMARK    2  A    between atoms: C2_3  and  C3_4 
ROOT
ATOM      1  C3  UNL d   1       1.050  -0.667   1.246  0.00  0.00    -0.075 A 
ATOM      2  C4  UNL d   1       1.591  -1.073   0.018  0.00  0.00     0.002 A 
ATOM      3  C5  UNL d   1       1.097  -0.555  -1.180  0.00  0.00     0.002 A 
ATOM      4  C6  UNL d   1       0.051   0.365  -1.166  0.00  0.00    -0.004 A 
ATOM      5  C7  UNL d   1      -0.506   0.763   0.048  0.00  0.00     0.002 A 
ATOM      6  C8  UNL d   1      -0.010   0.250   1.248  0.00  0.00     0.002 A 
ENDROOT
BRANCH   1   7
ATOM      7  C2  UNL d   1       1.600  -1.201   2.547  0.00  0.00     0.056 C 
BRANCH   7   8
ATOM      8  C1  UNL d   1       3.115  -1.032   2.700  0.00  0.00     0.007 C 
ATOM      9  C   UNL d   1       3.730  -2.004   3.698  0.00  0.00     0.009 C 
ENDBRANCH   7   8
ENDBRANCH   1   7
TORSDOF 2
ENDMDL
