MODEL 1
REMARK minimizedAffinity 3.46968794
REMARK minimizedRMSD -1
REMARK  2 active torsions:
REMARK  status: ('A' for Active; 'I' for Inactive)
REMARK    1  A    between atoms: C1_2  and  C2_3 
REMARK    2  A    between atoms: C2_3  and  C3_4 
ROOT
ATOM      1  C3  UNL d   1      -5.783  -1.084   2.769  0.00  0.00    -0.075 A 
ATOM      2  C4  UNL d   1      -5.896  -0.652   4.098  0.00  0.00     0.002 A 
ATOM      3  C5  UNL d   1      -5.997  -1.578   5.137  0.00  0.00     0.002 A 
ATOM      4  C6  UNL d   1      -5.997  -2.943   4.861  0.00  0.00    -0.004 A 
ATOM      5  C7  UNL d   1      -5.901  -3.383   3.543  0.00  0.00     0.002 A 
ATOM      6  C8  UNL d   1      -5.796  -2.460   2.501  0.00  0.00     0.002 A 
ENDROOT
BRANCH   1   7
ATOM      7  C2  UNL d   1      -5.643  -0.089   1.642  0.00  0.00     0.056 C 
BRANCH   7   8
ATOM      8  C1  UNL d   1      -4.312   0.670   1.641  0.00  0.00     0.007 C 
ATOM      9  C   UNL d   1      -3.845   1.063   0.246  0.00  0.00     0.009 C 
ENDBRANCH   7   8
ENDBRANCH   1   7
TORSDOF 2
ENDMDL
