MODEL 1
REMARK minimizedAffinity 11.0677195
REMARK minimizedRMSD -1
REMARK  2 active torsions:
REMARK  status: ('A' for Active; 'I' for Inactive)
REMARK    1  A    between atoms: C1_2  and  C2_3 
REMARK    2  A    between atoms: C2_3  and  C3_4 
ROOT
ATOM      1  C3  UNL d   1       0.357  -4.906  -1.032  0.00  0.00    -0.075 A 
ATOM      2  C4  UNL d   1      -0.143  -3.763  -0.390  0.00  0.00     0.002 A 
ATOM      3  C5  UNL d   1      -1.132  -2.987  -0.995  0.00  0.00     0.002 A 
ATOM      4  C6  UNL d   1      -1.625  -3.336  -2.250  0.00  0.00    -0.004 A 
ATOM      5  C7  UNL d   1      -1.123  -4.459  -2.904  0.00  0.00     0.002 A 
ATOM      6  C8  UNL d   1      -0.137  -5.240  -2.299  0.00  0.00     0.002 A 
ENDROOT
BRANCH   1   7
ATOM      7  C2  UNL d   1       1.407  -5.767  -0.370  0.00  0.00     0.056 C 
BRANCH   7   8
ATOM      8  C1  UNL d   1       2.797  -5.125  -0.317  0.00  0.00     0.007 C 
ATOM      9  C   UNL d   1       3.836  -6.000   0.373  0.00  0.00     0.009 C 
ENDBRANCH   7   8
ENDBRANCH   1   7
TORSDOF 2
ENDMDL
