MODEL 1
REMARK minimizedAffinity 4.13799191
REMARK minimizedRMSD -1
REMARK  2 active torsions:
REMARK  status: ('A' for Active; 'I' for Inactive)
REMARK    1  A    between atoms: C1_2  and  C2_3 
REMARK    2  A    between atoms: C2_3  and  C3_4 
ROOT
ATOM      1  C3  UNL d   1       0.514   1.933   2.424  0.00  0.00    -0.075 A 
ATOM      2  C4  UNL d   1       0.131   2.833   1.419  0.00  0.00     0.002 A 
ATOM      3  C5  UNL d   1       0.817   4.035   1.246  0.00  0.00     0.002 A 
ATOM      4  C6  UNL d   1       1.886   4.357   2.079  0.00  0.00    -0.004 A 
ATOM      5  C7  UNL d   1       2.265   3.477   3.091  0.00  0.00     0.002 A 
ATOM      6  C8  UNL d   1       1.582   2.272   3.264  0.00  0.00     0.002 A 
ENDROOT
BRANCH   1   7
ATOM      7  C2  UNL d   1      -0.207   0.617   2.598  0.00  0.00     0.056 C 
BRANCH   7   8
ATOM      8  C1  UNL d   1       0.724  -0.599   2.667  0.00  0.00     0.007 C 
ATOM      9  C   UNL d   1       1.423  -0.895   1.347  0.00  0.00     0.009 C 
ENDBRANCH   7   8
ENDBRANCH   1   7
TORSDOF 2
ENDMDL
