MODEL 1
REMARK minimizedAffinity 14.4480457
REMARK minimizedRMSD -1
REMARK  2 active torsions:
REMARK  status: ('A' for Active; 'I' for Inactive)
REMARK    1  A    between atoms: C1_2  and  C2_3 
REMARK    2  A    between atoms: C2_3  and  C3_4 
ROOT
ATOM      1  C3  UNL d   1       1.198   1.997   2.707  0.00  0.00    -0.075 A 
ATOM      2  C4  UNL d   1       2.085   0.950   2.420  0.00  0.00     0.002 A 
ATOM      3  C5  UNL d   1       1.618  -0.359   2.289  0.00  0.00     0.002 A 
ATOM      4  C6  UNL d   1       0.263  -0.637   2.453  0.00  0.00    -0.004 A 
ATOM      5  C7  UNL d   1      -0.625   0.393   2.755  0.00  0.00     0.002 A 
ATOM      6  C8  UNL d   1      -0.161   1.704   2.882  0.00  0.00     0.002 A 
ENDROOT
BRANCH   1   7
ATOM      7  C2  UNL d   1       1.692   3.419   2.820  0.00  0.00     0.056 C 
BRANCH   7   8
ATOM      8  C1  UNL d   1       2.044   4.067   1.476  0.00  0.00     0.007 C 
ATOM      9  C   UNL d   1       0.875   4.811   0.845  0.00  0.00     0.009 C 
ENDBRANCH   7   8
ENDBRANCH   1   7
TORSDOF 2
ENDMDL
