MODEL 1
REMARK minimizedAffinity 5.03892803
REMARK minimizedRMSD -1
REMARK  2 active torsions:
REMARK  status: ('A' for Active; 'I' for Inactive)
REMARK    1  A    between atoms: C1_2  and  C2_3 
REMARK    2  A    between atoms: C2_3  and  C3_4 
ROOT
ATOM      1  C3  UNL d   1       0.036  -0.402  -0.426  0.00  0.00    -0.075 A 
ATOM      2  C4  UNL d   1       0.136   0.705  -1.282  0.00  0.00     0.002 A 
ATOM      3  C5  UNL d   1      -0.823   0.922  -2.273  0.00  0.00     0.002 A 
ATOM      4  C6  UNL d   1      -1.884   0.033  -2.426  0.00  0.00    -0.004 A 
ATOM      5  C7  UNL d   1      -1.984  -1.078  -1.592  0.00  0.00     0.002 A 
ATOM      6  C8  UNL d   1      -1.029  -1.296  -0.597  0.00  0.00     0.002 A 
ENDROOT
BRANCH   1   7
ATOM      7  C2  UNL d   1       1.054  -0.626   0.667  0.00  0.00     0.056 C 
BRANCH   7   8
ATOM      8  C1  UNL d   1       0.551  -0.270   2.070  0.00  0.00     0.007 C 
ATOM      9  C   UNL d   1       0.570   1.227   2.352  0.00  0.00     0.009 C 
ENDBRANCH   7   8
ENDBRANCH   1   7
TORSDOF 2
ENDMDL
