MODEL 1
REMARK minimizedAffinity -2.66236496
REMARK minimizedRMSD -1
REMARK  2 active torsions:
REMARK  status: ('A' for Active; 'I' for Inactive)
REMARK    1  A    between atoms: C1_2  and  C2_3 
REMARK    2  A    between atoms: C2_3  and  C3_4 
ROOT
ATOM      1  C3  UNL d   1       0.410   2.728   0.546  0.00  0.00    -0.075 A 
ATOM      2  C4  UNL d   1       0.443   2.566   1.938  0.00  0.00     0.002 A 
ATOM      3  C5  UNL d   1       0.442   1.290   2.503  0.00  0.00     0.002 A 
ATOM      4  C6  UNL d   1       0.398   0.163   1.686  0.00  0.00    -0.004 A 
ATOM      5  C7  UNL d   1       0.348   0.312   0.301  0.00  0.00     0.002 A 
ATOM      6  C8  UNL d   1       0.353   1.587  -0.267  0.00  0.00     0.002 A 
ENDROOT
BRANCH   1   7
ATOM      7  C2  UNL d   1       0.440   4.105  -0.073  0.00  0.00     0.056 C 
BRANCH   7   8
ATOM      8  C1  UNL d   1       0.252   4.110  -1.594  0.00  0.00     0.007 C 
ATOM      9  C   UNL d   1      -0.600   5.270  -2.090  0.00  0.00     0.009 C 
ENDBRANCH   7   8
ENDBRANCH   1   7
TORSDOF 2
ENDMDL
