MODEL 1
REMARK minimizedAffinity -2.66906548
REMARK minimizedRMSD -1
REMARK  2 active torsions:
REMARK  status: ('A' for Active; 'I' for Inactive)
REMARK    1  A    between atoms: C1_2  and  C2_3 
REMARK    2  A    between atoms: C2_3  and  C3_4 
ROOT
ATOM      1  C3  UNL d   1      -1.086   0.303  -1.308  0.00  0.00    -0.075 A 
ATOM      2  C4  UNL d   1       0.181   0.448  -1.892  0.00  0.00     0.002 A 
ATOM      3  C5  UNL d   1       1.325   0.023  -1.215  0.00  0.00     0.002 A 
ATOM      4  C6  UNL d   1       1.218  -0.541   0.054  0.00  0.00    -0.004 A 
ATOM      5  C7  UNL d   1      -0.034  -0.675   0.650  0.00  0.00     0.002 A 
ATOM      6  C8  UNL d   1      -1.181  -0.254  -0.026  0.00  0.00     0.002 A 
ENDROOT
BRANCH   1   7
ATOM      7  C2  UNL d   1      -2.331   0.734  -2.047  0.00  0.00     0.056 C 
BRANCH   7   8
ATOM      8  C1  UNL d   1      -3.074  -0.414  -2.739  0.00  0.00     0.007 C 
ATOM      9  C   UNL d   1      -2.169  -1.279  -3.605  0.00  0.00     0.009 C 
ENDBRANCH   7   8
ENDBRANCH   1   7
TORSDOF 2
ENDMDL
