MODEL 1
REMARK minimizedAffinity -1.03088987
REMARK minimizedRMSD -1
REMARK  0 active torsions:
REMARK  status: ('A' for Active; 'I' for Inactive)
ROOT
ATOM      1  C   UNL d   1       1.933   3.477   0.779  0.00  0.00     0.020 A 
ATOM      2  C1  UNL d   1       1.648   3.009   2.061  0.00  0.00     0.020 A 
ATOM      3  C2  UNL d   1       0.901   1.841   2.228  0.00  0.00     0.034 A 
ATOM      4  C3  UNL d   1       0.436   1.137   1.110  0.00  0.00     0.017 A 
ATOM      5  C4  UNL d   1       0.723   1.608  -0.176  0.00  0.00     0.017 A 
ATOM      6  C5  UNL d   1       1.472   2.778  -0.337  0.00  0.00     0.034 A 
ATOM      7 Cl   UNL d   1       0.184   0.795  -1.603  0.00  0.00    -0.070 Cl
ATOM      8 Cl1  UNL d   1      -0.481  -0.300   1.390  0.00  0.00    -0.070 Cl
ENDROOT
TORSDOF 0
ENDMDL
