MODEL 1
REMARK minimizedAffinity -0.489221126
REMARK minimizedRMSD -1
REMARK  0 active torsions:
REMARK  status: ('A' for Active; 'I' for Inactive)
ROOT
ATOM      1  C   UNL d   1      -0.585  -0.779   0.961  0.00  0.00     0.020 A 
ATOM      2  C1  UNL d   1      -0.112  -0.064   2.060  0.00  0.00     0.020 A 
ATOM      3  C2  UNL d   1       0.346   1.245   1.898  0.00  0.00     0.034 A 
ATOM      4  C3  UNL d   1       0.332   1.843   0.633  0.00  0.00     0.017 A 
ATOM      5  C4  UNL d   1      -0.143   1.125  -0.471  0.00  0.00     0.017 A 
ATOM      6  C5  UNL d   1      -0.601  -0.185  -0.302  0.00  0.00     0.034 A 
ATOM      7 Cl   UNL d   1      -0.191   1.797  -2.062  0.00  0.00    -0.070 Cl
ATOM      8 Cl1  UNL d   1       0.913   3.465   0.505  0.00  0.00    -0.070 Cl
ENDROOT
TORSDOF 0
ENDMDL
