MODEL 1
REMARK minimizedAffinity -3.20528221
REMARK minimizedRMSD -1
REMARK  0 active torsions:
REMARK  status: ('A' for Active; 'I' for Inactive)
ROOT
ATOM      1  C   UNL d   1      -1.007  -1.401   1.769  0.00  0.00     0.020 A 
ATOM      2  C1  UNL d   1      -0.602  -0.074   1.626  0.00  0.00     0.020 A 
ATOM      3  C2  UNL d   1      -0.222   0.408   0.372  0.00  0.00     0.034 A 
ATOM      4  C3  UNL d   1      -0.246  -0.436  -0.744  0.00  0.00     0.017 A 
ATOM      5  C4  UNL d   1      -0.653  -1.767  -0.600  0.00  0.00     0.017 A 
ATOM      6  C5  UNL d   1      -1.033  -2.245   0.658  0.00  0.00     0.034 A 
ATOM      7 Cl   UNL d   1      -0.709  -2.869  -1.930  0.00  0.00    -0.070 Cl
ATOM      8 Cl1  UNL d   1       0.237   0.228  -2.264  0.00  0.00    -0.070 Cl
ENDROOT
TORSDOF 0
ENDMDL
