MODEL 1
REMARK minimizedAffinity -1.78791618
REMARK minimizedRMSD -1
REMARK  0 active torsions:
REMARK  status: ('A' for Active; 'I' for Inactive)
ROOT
ATOM      1  C   UNL d   1      -0.886  -1.678   1.322  0.00  0.00     0.020 A 
ATOM      2  C1  UNL d   1       0.064  -1.309   2.274  0.00  0.00     0.020 A 
ATOM      3  C2  UNL d   1       0.868  -0.187   2.059  0.00  0.00     0.034 A 
ATOM      4  C3  UNL d   1       0.723   0.569   0.890  0.00  0.00     0.017 A 
ATOM      5  C4  UNL d   1      -0.231   0.197  -0.065  0.00  0.00     0.017 A 
ATOM      6  C5  UNL d   1      -1.033  -0.927   0.156  0.00  0.00     0.034 A 
ATOM      7 Cl   UNL d   1      -0.468   1.081  -1.531  0.00  0.00    -0.070 Cl
ATOM      8 Cl1  UNL d   1       1.750   1.944   0.690  0.00  0.00    -0.070 Cl
ENDROOT
TORSDOF 0
ENDMDL
