MODEL 1
REMARK minimizedAffinity -1.02837527
REMARK minimizedRMSD -1
REMARK  0 active torsions:
REMARK  status: ('A' for Active; 'I' for Inactive)
ROOT
ATOM      1  C   UNL d   1      -1.031  -0.690   1.933  0.00  0.00     0.020 A 
ATOM      2  C1  UNL d   1      -1.252  -1.759   1.067  0.00  0.00     0.020 A 
ATOM      3  C2  UNL d   1      -0.784  -1.701  -0.248  0.00  0.00     0.034 A 
ATOM      4  C3  UNL d   1      -0.094  -0.571  -0.700  0.00  0.00     0.017 A 
ATOM      5  C4  UNL d   1       0.127   0.502   0.170  0.00  0.00     0.017 A 
ATOM      6  C5  UNL d   1      -0.343   0.439   1.486  0.00  0.00     0.034 A 
ATOM      7 Cl   UNL d   1       0.971   1.931  -0.315  0.00  0.00    -0.070 Cl
ATOM      8 Cl1  UNL d   1       0.456  -0.567  -2.338  0.00  0.00    -0.070 Cl
ENDROOT
TORSDOF 0
ENDMDL
