MODEL 1
REMARK minimizedAffinity -3.71298575
REMARK minimizedRMSD -1
REMARK  0 active torsions:
REMARK  status: ('A' for Active; 'I' for Inactive)
ROOT
ATOM      1  C   UNL d   1      -0.438   0.299  -0.114  0.00  0.00     0.020 A 
ATOM      2  C1  UNL d   1       0.841  -0.005   0.353  0.00  0.00     0.020 A 
ATOM      3  C2  UNL d   1       1.724   1.023   0.689  0.00  0.00     0.034 A 
ATOM      4  C3  UNL d   1       1.331   2.360   0.560  0.00  0.00     0.017 A 
ATOM      5  C4  UNL d   1       0.047   2.664   0.092  0.00  0.00     0.017 A 
ATOM      6  C5  UNL d   1      -0.833   1.631  -0.244  0.00  0.00     0.034 A 
ATOM      7 Cl   UNL d   1      -0.510   4.290  -0.094  0.00  0.00    -0.070 Cl
ATOM      8 Cl1  UNL d   1       2.475   3.579   0.995  0.00  0.00    -0.070 Cl
ENDROOT
TORSDOF 0
ENDMDL
