MODEL 1
REMARK minimizedAffinity -2.99006462
REMARK minimizedRMSD -1
REMARK  0 active torsions:
REMARK  status: ('A' for Active; 'I' for Inactive)
ROOT
ATOM      1  C   UNL d   1       1.347   2.300   0.482  0.00  0.00     0.020 A 
ATOM      2  C1  UNL d   1       0.121   2.264  -0.181  0.00  0.00     0.020 A 
ATOM      3  C2  UNL d   1      -0.588   1.064  -0.274  0.00  0.00     0.034 A 
ATOM      4  C3  UNL d   1      -0.071  -0.105   0.298  0.00  0.00     0.017 A 
ATOM      5  C4  UNL d   1       1.159  -0.067   0.964  0.00  0.00     0.017 A 
ATOM      6  C5  UNL d   1       1.865   1.137   1.054  0.00  0.00     0.034 A 
ATOM      7 Cl   UNL d   1       1.860  -1.468   1.694  0.00  0.00    -0.070 Cl
ATOM      8 Cl1  UNL d   1      -1.002  -1.553   0.145  0.00  0.00    -0.070 Cl
ENDROOT
TORSDOF 0
ENDMDL
