MODEL 1
REMARK minimizedAffinity -1.40330362
REMARK minimizedRMSD -1
REMARK  0 active torsions:
REMARK  status: ('A' for Active; 'I' for Inactive)
ROOT
ATOM      1  C   UNL d   1      -0.002   1.625  -0.312  0.00  0.00     0.020 A 
ATOM      2  C1  UNL d   1      -0.382   1.194   0.959  0.00  0.00     0.020 A 
ATOM      3  C2  UNL d   1      -0.629  -0.161   1.192  0.00  0.00     0.034 A 
ATOM      4  C3  UNL d   1      -0.496  -1.089   0.153  0.00  0.00     0.017 A 
ATOM      5  C4  UNL d   1      -0.114  -0.656  -1.122  0.00  0.00     0.017 A 
ATOM      6  C5  UNL d   1       0.132   0.702  -1.350  0.00  0.00     0.034 A 
ATOM      7 Cl   UNL d   1       0.071  -1.742  -2.454  0.00  0.00    -0.070 Cl
ATOM      8 Cl1  UNL d   1      -0.817  -2.748   0.512  0.00  0.00    -0.070 Cl
ENDROOT
TORSDOF 0
ENDMDL
