MODEL 1
REMARK minimizedAffinity -3.34700131
REMARK minimizedRMSD -1
REMARK  0 active torsions:
REMARK  status: ('A' for Active; 'I' for Inactive)
ROOT
ATOM      1  C   UNL d   1      -0.745  -1.502  -0.624  0.00  0.00     0.020 A 
ATOM      2  C1  UNL d   1      -0.797  -2.236   0.560  0.00  0.00     0.020 A 
ATOM      3  C2  UNL d   1      -0.303  -1.687   1.745  0.00  0.00     0.034 A 
ATOM      4  C3  UNL d   1       0.246  -0.399   1.748  0.00  0.00     0.017 A 
ATOM      5  C4  UNL d   1       0.297   0.337   0.559  0.00  0.00     0.017 A 
ATOM      6  C5  UNL d   1      -0.199  -0.218  -0.624  0.00  0.00     0.034 A 
ATOM      7 Cl   UNL d   1       0.959   1.932   0.485  0.00  0.00    -0.070 Cl
ATOM      8 Cl1  UNL d   1       0.838   0.218   3.249  0.00  0.00    -0.070 Cl
ENDROOT
TORSDOF 0
ENDMDL
