MODEL 1
REMARK minimizedAffinity -3.07791781
REMARK minimizedRMSD -1
REMARK  0 active torsions:
REMARK  status: ('A' for Active; 'I' for Inactive)
ROOT
ATOM      1  C   UNL d   1       1.475   2.048   2.298  0.00  0.00     0.020 A 
ATOM      2  C1  UNL d   1       1.386   3.125   1.418  0.00  0.00     0.020 A 
ATOM      3  C2  UNL d   1       0.736   2.972   0.191  0.00  0.00     0.034 A 
ATOM      4  C3  UNL d   1       0.173   1.740  -0.159  0.00  0.00     0.017 A 
ATOM      5  C4  UNL d   1       0.263   0.659   0.726  0.00  0.00     0.017 A 
ATOM      6  C5  UNL d   1       0.914   0.817   1.953  0.00  0.00     0.034 A 
ATOM      7 Cl   UNL d   1      -0.407  -0.893   0.364  0.00  0.00    -0.070 Cl
ATOM      8 Cl1  UNL d   1      -0.615   1.623  -1.692  0.00  0.00    -0.070 Cl
ENDROOT
TORSDOF 0
ENDMDL
