MODEL 1
REMARK minimizedAffinity -3.20204711
REMARK minimizedRMSD -1
REMARK  0 active torsions:
REMARK  status: ('A' for Active; 'I' for Inactive)
ROOT
ATOM      1  C   UNL d   1      -0.780  -0.961   1.338  0.00  0.00     0.020 A 
ATOM      2  C1  UNL d   1       0.071  -0.362   2.266  0.00  0.00     0.020 A 
ATOM      3  C2  UNL d   1       0.731   0.826   1.943  0.00  0.00     0.034 A 
ATOM      4  C3  UNL d   1       0.540   1.418   0.689  0.00  0.00     0.017 A 
ATOM      5  C4  UNL d   1      -0.315   0.817  -0.241  0.00  0.00     0.017 A 
ATOM      6  C5  UNL d   1      -0.973  -0.372   0.087  0.00  0.00     0.034 A 
ATOM      7 Cl   UNL d   1      -0.600   1.489  -1.808  0.00  0.00    -0.070 Cl
ATOM      8 Cl1  UNL d   1       1.388   2.887   0.358  0.00  0.00    -0.070 Cl
ENDROOT
TORSDOF 0
ENDMDL
