MODEL 1
REMARK minimizedAffinity -1.7354157
REMARK minimizedRMSD -1
REMARK  0 active torsions:
REMARK  status: ('A' for Active; 'I' for Inactive)
ROOT
ATOM      1  C   UNL d   1      -1.221  -1.449   1.416  0.00  0.00     0.020 A 
ATOM      2  C1  UNL d   1      -1.130  -0.063   1.297  0.00  0.00     0.020 A 
ATOM      3  C2  UNL d   1      -0.731   0.509   0.087  0.00  0.00     0.034 A 
ATOM      4  C3  UNL d   1      -0.421  -0.306  -1.008  0.00  0.00     0.017 A 
ATOM      5  C4  UNL d   1      -0.513  -1.697  -0.887  0.00  0.00     0.017 A 
ATOM      6  C5  UNL d   1      -0.913  -2.264   0.327  0.00  0.00     0.034 A 
ATOM      7 Cl   UNL d   1      -0.147  -2.767  -2.194  0.00  0.00    -0.070 Cl
ATOM      8 Cl1  UNL d   1       0.066   0.469  -2.474  0.00  0.00    -0.070 Cl
ENDROOT
TORSDOF 0
ENDMDL
