MODEL 1
REMARK minimizedAffinity -2.32988286
REMARK minimizedRMSD -1
REMARK  0 active torsions:
REMARK  status: ('A' for Active; 'I' for Inactive)
ROOT
ATOM      1  C   UNL d   1       0.260   1.919  -0.056  0.00  0.00     0.020 A 
ATOM      2  C1  UNL d   1       1.115   0.989   0.533  0.00  0.00     0.020 A 
ATOM      3  C2  UNL d   1       0.592  -0.166   1.119  0.00  0.00     0.034 A 
ATOM      4  C3  UNL d   1      -0.789  -0.394   1.117  0.00  0.00     0.017 A 
ATOM      5  C4  UNL d   1      -1.646   0.541   0.525  0.00  0.00     0.017 A 
ATOM      6  C5  UNL d   1      -1.117   1.696  -0.060  0.00  0.00     0.034 A 
ATOM      7 Cl   UNL d   1      -3.361   0.330   0.483  0.00  0.00    -0.070 Cl
ATOM      8 Cl1  UNL d   1      -1.366  -1.843   1.859  0.00  0.00    -0.070 Cl
ENDROOT
TORSDOF 0
ENDMDL
