MODEL 1
REMARK minimizedAffinity 0.0170176066
REMARK minimizedRMSD -1
REMARK  0 active torsions:
REMARK  status: ('A' for Active; 'I' for Inactive)
ROOT
ATOM      1  C   UNL d   1      -0.656  -0.916   1.633  0.00  0.00     0.020 A 
ATOM      2  C1  UNL d   1      -0.924  -2.278   1.505  0.00  0.00     0.020 A 
ATOM      3  C2  UNL d   1      -0.978  -2.862   0.238  0.00  0.00     0.034 A 
ATOM      4  C3  UNL d   1      -0.762  -2.085  -0.906  0.00  0.00     0.017 A 
ATOM      5  C4  UNL d   1      -0.492  -0.718  -0.776  0.00  0.00     0.017 A 
ATOM      6  C5  UNL d   1      -0.440  -0.137   0.495  0.00  0.00     0.034 A 
ATOM      7 Cl   UNL d   1      -0.216   0.306  -2.141  0.00  0.00    -0.070 Cl
ATOM      8 Cl1  UNL d   1      -0.843  -2.874  -2.441  0.00  0.00    -0.070 Cl
ENDROOT
TORSDOF 0
ENDMDL
