MODEL 1
REMARK minimizedAffinity -3.08139515
REMARK minimizedRMSD -1
REMARK  0 active torsions:
REMARK  status: ('A' for Active; 'I' for Inactive)
ROOT
ATOM      1  C   UNL d   1       0.080  -1.123   1.821  0.00  0.00     0.020 A 
ATOM      2  C1  UNL d   1      -0.804  -1.564   0.837  0.00  0.00     0.020 A 
ATOM      3  C2  UNL d   1      -0.964  -0.827  -0.338  0.00  0.00     0.034 A 
ATOM      4  C3  UNL d   1      -0.240   0.355  -0.532  0.00  0.00     0.017 A 
ATOM      5  C4  UNL d   1       0.647   0.796   0.456  0.00  0.00     0.017 A 
ATOM      6  C5  UNL d   1       0.804   0.054   1.631  0.00  0.00     0.034 A 
ATOM      7 Cl   UNL d   1       1.576   2.244   0.289  0.00  0.00    -0.070 Cl
ATOM      8 Cl1  UNL d   1      -0.487   1.216  -2.010  0.00  0.00    -0.070 Cl
ENDROOT
TORSDOF 0
ENDMDL
