MODEL 1
REMARK minimizedAffinity -3.46288013
REMARK minimizedRMSD -1
REMARK  0 active torsions:
REMARK  status: ('A' for Active; 'I' for Inactive)
ROOT
ATOM      1  C   UNL d   1      -1.285  -1.836   1.312  0.00  0.00     0.020 A 
ATOM      2  C1  UNL d   1      -1.256  -0.482   1.644  0.00  0.00     0.020 A 
ATOM      3  C2  UNL d   1      -0.885   0.464   0.687  0.00  0.00     0.034 A 
ATOM      4  C3  UNL d   1      -0.542   0.058  -0.608  0.00  0.00     0.017 A 
ATOM      5  C4  UNL d   1      -0.571  -1.301  -0.941  0.00  0.00     0.017 A 
ATOM      6  C5  UNL d   1      -0.943  -2.244   0.022  0.00  0.00     0.034 A 
ATOM      7 Cl   UNL d   1      -0.160  -1.879  -2.517  0.00  0.00    -0.070 Cl
ATOM      8 Cl1  UNL d   1      -0.093   1.282  -1.742  0.00  0.00    -0.070 Cl
ENDROOT
TORSDOF 0
ENDMDL
