MODEL 1
REMARK minimizedAffinity -5.34360695
REMARK minimizedRMSD -1
REMARK  0 active torsions:
REMARK  status: ('A' for Active; 'I' for Inactive)
ROOT
ATOM      1  C2' OXE d   1      -0.554   1.010   0.352  0.00  0.00     0.078 C 
ATOM      2  C1' OXE d   1      -1.319  -1.016   2.138  0.00  0.00     0.078 C 
ATOM      3  C1  OXE d   1       0.015  -1.153   1.449  0.00  0.00    -0.078 A 
ATOM      4  C2  OXE d   1       0.361  -0.180   0.542  0.00  0.00    -0.078 A 
ATOM      5  C3  OXE d   1       1.604  -0.230  -0.082  0.00  0.00     0.003 A 
ATOM      6  C4  OXE d   1       2.441  -1.339   0.091  0.00  0.00    -0.002 A 
ATOM      7  C5  OXE d   1       2.090  -2.360   0.981  0.00  0.00    -0.002 A 
ATOM      8  C6  OXE d   1       0.903  -2.262   1.698  0.00  0.00     0.003 A 
ENDROOT
TORSDOF 0
ENDMDL
