MODEL 1
REMARK minimizedAffinity -5.39454174
REMARK minimizedRMSD -1
REMARK  0 active torsions:
REMARK  status: ('A' for Active; 'I' for Inactive)
ROOT
ATOM      1  C2' OXE d   1      -0.387   0.846  -0.015  0.00  0.00     0.078 C 
ATOM      2  C1' OXE d   1       2.045  -0.277  -0.854  0.00  0.00     0.078 C 
ATOM      3  C1  OXE d   1       1.260  -1.010   0.205  0.00  0.00    -0.078 A 
ATOM      4  C2  OXE d   1       0.095  -0.430   0.643  0.00  0.00    -0.078 A 
ATOM      5  C3  OXE d   1      -0.696  -1.092   1.579  0.00  0.00     0.003 A 
ATOM      6  C4  OXE d   1      -0.238  -2.266   2.189  0.00  0.00    -0.002 A 
ATOM      7  C5  OXE d   1       0.966  -2.853   1.786  0.00  0.00    -0.002 A 
ATOM      8  C6  OXE d   1       1.705  -2.262   0.767  0.00  0.00     0.003 A 
ENDROOT
TORSDOF 0
ENDMDL
