MODEL 1
REMARK minimizedAffinity -5.35721636
REMARK minimizedRMSD -1
REMARK  0 active torsions:
REMARK  status: ('A' for Active; 'I' for Inactive)
ROOT
ATOM      1  C2' OXE d   1      -0.277   0.576  -0.231  0.00  0.00     0.078 C 
ATOM      2  C1' OXE d   1       2.115  -0.739  -0.887  0.00  0.00     0.078 C 
ATOM      3  C1  OXE d   1       1.321  -1.265   0.282  0.00  0.00    -0.078 A 
ATOM      4  C2  OXE d   1       0.175  -0.588   0.625  0.00  0.00    -0.078 A 
ATOM      5  C3  OXE d   1      -0.623  -1.064   1.661  0.00  0.00     0.003 A 
ATOM      6  C4  OXE d   1      -0.192  -2.134   2.454  0.00  0.00    -0.002 A 
ATOM      7  C5  OXE d   1       0.991  -2.814   2.146  0.00  0.00    -0.002 A 
ATOM      8  C6  OXE d   1       1.736  -2.420   1.040  0.00  0.00     0.003 A 
ENDROOT
TORSDOF 0
ENDMDL
