MODEL 1
REMARK minimizedAffinity -5.56234789
REMARK minimizedRMSD -1
REMARK  0 active torsions:
REMARK  status: ('A' for Active; 'I' for Inactive)
ROOT
ATOM      1  C2' OXE d   1      -0.818   0.880  -0.039  0.00  0.00     0.078 C 
ATOM      2  C1' OXE d   1       1.713  -0.178  -0.638  0.00  0.00     0.078 C 
ATOM      3  C1  OXE d   1       0.961  -0.770   0.528  0.00  0.00    -0.078 A 
ATOM      4  C2  OXE d   1      -0.256  -0.215   0.843  0.00  0.00    -0.078 A 
ATOM      5  C3  OXE d   1      -1.015  -0.759   1.875  0.00  0.00     0.003 A 
ATOM      6  C4  OXE d   1      -0.484  -1.764   2.692  0.00  0.00    -0.002 A 
ATOM      7  C5  OXE d   1       0.770  -2.317   2.413  0.00  0.00    -0.002 A 
ATOM      8  C6  OXE d   1       1.486  -1.861   1.312  0.00  0.00     0.003 A 
ENDROOT
TORSDOF 0
ENDMDL
