MODEL 1
REMARK minimizedAffinity -3.84025836
REMARK minimizedRMSD -1
REMARK  0 active torsions:
REMARK  status: ('A' for Active; 'I' for Inactive)
ROOT
ATOM      1  C2' OXE d   1       1.847   0.597  -0.834  0.00  0.00     0.078 C 
ATOM      2  C1' OXE d   1      -0.843   1.002  -0.139  0.00  0.00     0.078 C 
ATOM      3  C1  OXE d   1      -0.143  -0.206   0.432  0.00  0.00    -0.078 A 
ATOM      4  C2  OXE d   1       1.159  -0.421   0.049  0.00  0.00    -0.078 A 
ATOM      5  C3  OXE d   1       1.868  -1.490   0.589  0.00  0.00     0.003 A 
ATOM      6  C4  OXE d   1       1.222  -2.434   1.397  0.00  0.00    -0.002 A 
ATOM      7  C5  OXE d   1      -0.115  -2.254   1.768  0.00  0.00    -0.002 A 
ATOM      8  C6  OXE d   1      -0.798  -1.125   1.329  0.00  0.00     0.003 A 
ENDROOT
TORSDOF 0
ENDMDL
