MODEL 1
REMARK minimizedAffinity -6.07026863
REMARK minimizedRMSD -1
REMARK  0 active torsions:
REMARK  status: ('A' for Active; 'I' for Inactive)
ROOT
ATOM      1  C2' OXE d   1      -0.703   0.562  -0.056  0.00  0.00     0.078 C 
ATOM      2  C1' OXE d   1       1.881  -0.277  -0.764  0.00  0.00     0.078 C 
ATOM      3  C1  OXE d   1       1.176  -1.024   0.340  0.00  0.00    -0.078 A 
ATOM      4  C2  OXE d   1      -0.069  -0.577   0.712  0.00  0.00    -0.078 A 
ATOM      5  C3  OXE d   1      -0.784  -1.264   1.688  0.00  0.00     0.003 A 
ATOM      6  C4  OXE d   1      -0.187  -2.311   2.401  0.00  0.00    -0.002 A 
ATOM      7  C5  OXE d   1       1.096  -2.757   2.065  0.00  0.00    -0.002 A 
ATOM      8  C6  OXE d   1       1.773  -2.153   1.011  0.00  0.00     0.003 A 
ENDROOT
TORSDOF 0
ENDMDL
