MODEL 1
REMARK minimizedAffinity -3.72226691
REMARK minimizedRMSD -1
REMARK  0 active torsions:
REMARK  status: ('A' for Active; 'I' for Inactive)
ROOT
ATOM      1  C2' OXE d   1       1.182  -2.942   1.174  0.00  0.00     0.078 C 
ATOM      2  C1' OXE d   1      -1.236  -1.965   2.211  0.00  0.00     0.078 C 
ATOM      3  C1  OXE d   1      -0.479  -1.087   1.247  0.00  0.00    -0.078 A 
ATOM      4  C2  OXE d   1       0.727  -1.553   0.781  0.00  0.00    -0.078 A 
ATOM      5  C3  OXE d   1       1.440  -0.806  -0.152  0.00  0.00     0.003 A 
ATOM      6  C4  OXE d   1       1.017   0.482  -0.503  0.00  0.00    -0.002 A 
ATOM      7  C5  OXE d   1      -0.188   0.992  -0.009  0.00  0.00    -0.002 A 
ATOM      8  C6  OXE d   1      -0.967   0.205   0.832  0.00  0.00     0.003 A 
ENDROOT
TORSDOF 0
ENDMDL
