MODEL 1
REMARK minimizedAffinity -4.21929646
REMARK minimizedRMSD -1
REMARK  0 active torsions:
REMARK  status: ('A' for Active; 'I' for Inactive)
ROOT
ATOM      1  C2' OXE d   1       2.223  -2.211   1.320  0.00  0.00     0.078 C 
ATOM      2  C1' OXE d   1       0.005  -2.347   3.035  0.00  0.00     0.078 C 
ATOM      3  C1  OXE d   1      -0.024  -1.323   1.927  0.00  0.00    -0.078 A 
ATOM      4  C2  OXE d   1       1.086  -1.232   1.122  0.00  0.00    -0.078 A 
ATOM      5  C3  OXE d   1       1.089  -0.343   0.051  0.00  0.00     0.003 A 
ATOM      6  C4  OXE d   1       0.037   0.566  -0.119  0.00  0.00    -0.002 A 
ATOM      7  C5  OXE d   1      -1.085   0.517   0.715  0.00  0.00    -0.002 A 
ATOM      8  C6  OXE d   1      -1.150  -0.448   1.714  0.00  0.00     0.003 A 
ENDROOT
TORSDOF 0
ENDMDL
