MODEL 1
REMARK minimizedAffinity -5.55491829
REMARK minimizedRMSD -1
REMARK  0 active torsions:
REMARK  status: ('A' for Active; 'I' for Inactive)
ROOT
ATOM      1  C2' OXE d   1      -0.871   0.604   0.428  0.00  0.00     0.078 C 
ATOM      2  C1' OXE d   1       1.648   0.029  -0.668  0.00  0.00     0.078 C 
ATOM      3  C1  OXE d   1       1.085  -0.936   0.346  0.00  0.00    -0.078 A 
ATOM      4  C2  OXE d   1      -0.127  -0.622   0.912  0.00  0.00    -0.078 A 
ATOM      5  C3  OXE d   1      -0.717  -1.505   1.812  0.00  0.00     0.003 A 
ATOM      6  C4  OXE d   1      -0.017  -2.632   2.261  0.00  0.00    -0.002 A 
ATOM      7  C5  OXE d   1       1.236  -2.948   1.728  0.00  0.00    -0.002 A 
ATOM      8  C6  OXE d   1       1.782  -2.135   0.740  0.00  0.00     0.003 A 
ENDROOT
TORSDOF 0
ENDMDL
