MODEL 1
REMARK minimizedAffinity -4.40514994
REMARK minimizedRMSD -1
REMARK  0 active torsions:
REMARK  status: ('A' for Active; 'I' for Inactive)
ROOT
ATOM      1  C2' OXE d   1      -0.461  -0.026  -0.831  0.00  0.00     0.078 C 
ATOM      2  C1' OXE d   1      -1.708   0.365   1.653  0.00  0.00     0.078 C 
ATOM      3  C1  OXE d   1      -0.652  -0.708   1.557  0.00  0.00    -0.078 A 
ATOM      4  C2  OXE d   1      -0.080  -0.924   0.327  0.00  0.00    -0.078 A 
ATOM      5  C3  OXE d   1       0.938  -1.863   0.195  0.00  0.00     0.003 A 
ATOM      6  C4  OXE d   1       1.278  -2.696   1.268  0.00  0.00    -0.002 A 
ATOM      7  C5  OXE d   1       0.679  -2.520   2.520  0.00  0.00    -0.002 A 
ATOM      8  C6  OXE d   1      -0.254  -1.504   2.692  0.00  0.00     0.003 A 
ENDROOT
TORSDOF 0
ENDMDL
