MODEL 1
REMARK minimizedAffinity -5.67242861
REMARK minimizedRMSD -1
REMARK  0 active torsions:
REMARK  status: ('A' for Active; 'I' for Inactive)
ROOT
ATOM      1  C2' OXE d   1       1.695   0.393  -0.795  0.00  0.00     0.078 C 
ATOM      2  C1' OXE d   1      -0.798   0.811   0.425  0.00  0.00     0.078 C 
ATOM      3  C1  OXE d   1       0.074  -0.294   0.967  0.00  0.00    -0.078 A 
ATOM      4  C2  OXE d   1       1.272  -0.522   0.334  0.00  0.00    -0.078 A 
ATOM      5  C3  OXE d   1       2.139  -1.492   0.828  0.00  0.00     0.003 A 
ATOM      6  C4  OXE d   1       1.736  -2.340   1.867  0.00  0.00    -0.002 A 
ATOM      7  C5  OXE d   1       0.503  -2.151   2.500  0.00  0.00    -0.002 A 
ATOM      8  C6  OXE d   1      -0.320  -1.108   2.091  0.00  0.00     0.003 A 
ENDROOT
TORSDOF 0
ENDMDL
