MODEL 1
REMARK minimizedAffinity -4.85997534
REMARK minimizedRMSD -1
REMARK  0 active torsions:
REMARK  status: ('A' for Active; 'I' for Inactive)
ROOT
ATOM      1  C2' OXE d   1      -1.020   0.563   1.730  0.00  0.00     0.078 C 
ATOM      2  C1' OXE d   1       0.354   0.516  -0.718  0.00  0.00     0.078 C 
ATOM      3  C1  OXE d   1       0.364  -0.739   0.118  0.00  0.00    -0.078 A 
ATOM      4  C2  OXE d   1      -0.272  -0.692   1.336  0.00  0.00    -0.078 A 
ATOM      5  C3  OXE d   1      -0.340  -1.839   2.122  0.00  0.00     0.003 A 
ATOM      6  C4  OXE d   1       0.363  -2.993   1.755  0.00  0.00    -0.002 A 
ATOM      7  C5  OXE d   1       1.049  -3.049   0.538  0.00  0.00    -0.002 A 
ATOM      8  C6  OXE d   1       1.024  -1.947  -0.310  0.00  0.00     0.003 A 
ENDROOT
TORSDOF 0
ENDMDL
