MODEL 1
REMARK minimizedAffinity -5.49557018
REMARK minimizedRMSD -1
REMARK  0 active torsions:
REMARK  status: ('A' for Active; 'I' for Inactive)
ROOT
ATOM      1  C2' OXE d   1       1.718   0.254  -0.777  0.00  0.00     0.078 C 
ATOM      2  C1' OXE d   1      -0.841   0.906   0.176  0.00  0.00     0.078 C 
ATOM      3  C1  OXE d   1      -0.156  -0.300   0.768  0.00  0.00    -0.078 A 
ATOM      4  C2  OXE d   1       1.076  -0.639   0.263  0.00  0.00    -0.078 A 
ATOM      5  C3  OXE d   1       1.775  -1.710   0.811  0.00  0.00     0.003 A 
ATOM      6  C4  OXE d   1       1.171  -2.537   1.766  0.00  0.00    -0.002 A 
ATOM      7  C5  OXE d   1      -0.100  -2.233   2.266  0.00  0.00    -0.002 A 
ATOM      8  C6  OXE d   1      -0.758  -1.096   1.809  0.00  0.00     0.003 A 
ENDROOT
TORSDOF 0
ENDMDL
