MODEL 1
REMARK minimizedAffinity -5.91100168
REMARK minimizedRMSD -1
REMARK  0 active torsions:
REMARK  status: ('A' for Active; 'I' for Inactive)
ROOT
ATOM      1  C2' OXE d   1      -0.715  -2.166   2.563  0.00  0.00     0.078 C 
ATOM      2  C1' OXE d   1       1.256  -2.593   0.611  0.00  0.00     0.078 C 
ATOM      3  C1  OXE d   1       0.573  -1.249   0.639  0.00  0.00    -0.078 A 
ATOM      4  C2  OXE d   1      -0.422  -1.065   1.567  0.00  0.00    -0.078 A 
ATOM      5  C3  OXE d   1      -1.047   0.175   1.672  0.00  0.00     0.003 A 
ATOM      6  C4  OXE d   1      -0.778   1.185   0.740  0.00  0.00    -0.002 A 
ATOM      7  C5  OXE d   1       0.205   1.004  -0.239  0.00  0.00    -0.002 A 
ATOM      8  C6  OXE d   1       0.918  -0.189  -0.277  0.00  0.00     0.003 A 
ENDROOT
TORSDOF 0
ENDMDL
