MODEL 1
REMARK minimizedAffinity -6.05408478
REMARK minimizedRMSD -1
REMARK  0 active torsions:
REMARK  status: ('A' for Active; 'I' for Inactive)
ROOT
ATOM      1  C2' OXE d   1       1.519  -0.016  -0.768  0.00  0.00     0.078 C 
ATOM      2  C1' OXE d   1      -0.945   0.908   0.209  0.00  0.00     0.078 C 
ATOM      3  C1  OXE d   1      -0.245  -0.181   0.983  0.00  0.00    -0.078 A 
ATOM      4  C2  OXE d   1       0.937  -0.660   0.472  0.00  0.00    -0.078 A 
ATOM      5  C3  OXE d   1       1.651  -1.626   1.175  0.00  0.00     0.003 A 
ATOM      6  C4  OXE d   1       1.100  -2.224   2.316  0.00  0.00    -0.002 A 
ATOM      7  C5  OXE d   1      -0.122  -1.779   2.830  0.00  0.00    -0.002 A 
ATOM      8  C6  OXE d   1      -0.786  -0.732   2.201  0.00  0.00     0.003 A 
ENDROOT
TORSDOF 0
ENDMDL
