MODEL 1
REMARK minimizedAffinity -5.15451336
REMARK minimizedRMSD -1
REMARK  0 active torsions:
REMARK  status: ('A' for Active; 'I' for Inactive)
ROOT
ATOM      1  C2' OXE d   1       1.663   0.166  -0.360  0.00  0.00     0.078 C 
ATOM      2  C1' OXE d   1      -1.076   0.678  -0.015  0.00  0.00     0.078 C 
ATOM      3  C1  OXE d   1      -0.493  -0.528   0.678  0.00  0.00    -0.078 A 
ATOM      4  C2  OXE d   1       0.838  -0.797   0.465  0.00  0.00    -0.078 A 
ATOM      5  C3  OXE d   1       1.438  -1.866   1.124  0.00  0.00     0.003 A 
ATOM      6  C4  OXE d   1       0.666  -2.758   1.878  0.00  0.00    -0.002 A 
ATOM      7  C5  OXE d   1      -0.699  -2.525   2.075  0.00  0.00    -0.002 A 
ATOM      8  C6  OXE d   1      -1.284  -1.393   1.518  0.00  0.00     0.003 A 
ENDROOT
TORSDOF 0
ENDMDL
