MODEL 1
REMARK minimizedAffinity -5.99427176
REMARK minimizedRMSD -1
REMARK  0 active torsions:
REMARK  status: ('A' for Active; 'I' for Inactive)
ROOT
ATOM      1  C2' OXE d   1      -0.880   0.492  -0.332  0.00  0.00     0.078 C 
ATOM      2  C1' OXE d   1       1.863   0.170  -0.832  0.00  0.00     0.078 C 
ATOM      3  C1  OXE d   1       1.218  -0.752   0.172  0.00  0.00    -0.078 A 
ATOM      4  C2  OXE d   1      -0.115  -0.557   0.445  0.00  0.00    -0.078 A 
ATOM      5  C3  OXE d   1      -0.772  -1.414   1.322  0.00  0.00     0.003 A 
ATOM      6  C4  OXE d   1      -0.054  -2.376   2.044  0.00  0.00    -0.002 A 
ATOM      7  C5  OXE d   1       1.313  -2.565   1.811  0.00  0.00    -0.002 A 
ATOM      8  C6  OXE d   1       1.953  -1.791   0.849  0.00  0.00     0.003 A 
ENDROOT
TORSDOF 0
ENDMDL
