MODEL 1
REMARK minimizedAffinity 0.0931995735
REMARK minimizedRMSD -1
REMARK  0 active torsions:
REMARK  status: ('A' for Active; 'I' for Inactive)
ROOT
ATOM      1  C1  BNZ d   1       0.106  -1.855   0.788  0.00  0.00     0.000 A 
ATOM      2  C2  BNZ d   1       0.808  -2.516  -0.184  0.00  0.00     0.000 A 
ATOM      3  C3  BNZ d   1       0.203  -2.892  -1.351  0.00  0.00     0.000 A 
ATOM      4  C4  BNZ d   1      -1.110  -2.642  -1.527  0.00  0.00     0.000 A 
ATOM      5  C5  BNZ d   1      -1.834  -1.984  -0.552  0.00  0.00     0.000 A 
ATOM      6  C6  BNZ d   1      -1.212  -1.573   0.604  0.00  0.00     0.000 A 
ENDROOT
TORSDOF 0
ENDMDL
