MODEL 1
REMARK minimizedAffinity 2.709903
REMARK minimizedRMSD -1
REMARK  0 active torsions:
REMARK  status: ('A' for Active; 'I' for Inactive)
ROOT
ATOM      1  C1  BNZ d   1      -0.991  -1.001   0.230  0.00  0.00     0.000 A 
ATOM      2  C2  BNZ d   1      -1.170  -1.544  -1.015  0.00  0.00     0.000 A 
ATOM      3  C3  BNZ d   1      -0.838  -2.846  -1.265  0.00  0.00     0.000 A 
ATOM      4  C4  BNZ d   1      -0.290  -3.591  -0.283  0.00  0.00     0.000 A 
ATOM      5  C5  BNZ d   1      -0.094  -3.055   0.974  0.00  0.00     0.000 A 
ATOM      6  C6  BNZ d   1      -0.466  -1.756   1.233  0.00  0.00     0.000 A 
ENDROOT
TORSDOF 0
ENDMDL
