MODEL 1
REMARK minimizedAffinity -0.86129719
REMARK minimizedRMSD -1
REMARK  0 active torsions:
REMARK  status: ('A' for Active; 'I' for Inactive)
ROOT
ATOM      1  C1  BNZ d   1       2.267  -0.056   2.690  0.00  0.00     0.000 A 
ATOM      2  C2  BNZ d   1       2.634   1.080   2.019  0.00  0.00     0.000 A 
ATOM      3  C3  BNZ d   1       2.021   1.429   0.847  0.00  0.00     0.000 A 
ATOM      4  C4  BNZ d   1       1.073   0.622   0.329  0.00  0.00     0.000 A 
ATOM      5  C5  BNZ d   1       0.699  -0.532   0.989  0.00  0.00     0.000 A 
ATOM      6  C6  BNZ d   1       1.290  -0.860   2.188  0.00  0.00     0.000 A 
ENDROOT
TORSDOF 0
ENDMDL
