MODEL 1
REMARK minimizedAffinity -1.47820854
REMARK minimizedRMSD -1
REMARK  0 active torsions:
REMARK  status: ('A' for Active; 'I' for Inactive)
ROOT
ATOM      1  C1  BNZ d   1       0.476  -2.967   2.488  0.00  0.00     0.000 A 
ATOM      2  C2  BNZ d   1       1.262  -3.028   3.607  0.00  0.00     0.000 A 
ATOM      3  C3  BNZ d   1       2.050  -1.971   3.968  0.00  0.00     0.000 A 
ATOM      4  C4  BNZ d   1       2.082  -0.872   3.187  0.00  0.00     0.000 A 
ATOM      5  C5  BNZ d   1       1.303  -0.798   2.050  0.00  0.00     0.000 A 
ATOM      6  C6  BNZ d   1       0.481  -1.849   1.712  0.00  0.00     0.000 A 
ENDROOT
TORSDOF 0
ENDMDL
