MODEL 1
REMARK minimizedAffinity 1.3641901
REMARK minimizedRMSD -1
REMARK  0 active torsions:
REMARK  status: ('A' for Active; 'I' for Inactive)
ROOT
ATOM      1  C1  BNZ d   1       0.959  -3.426  -0.711  0.00  0.00     0.000 A 
ATOM      2  C2  BNZ d   1       1.455  -4.247   0.267  0.00  0.00     0.000 A 
ATOM      3  C3  BNZ d   1       1.027  -5.540   0.378  0.00  0.00     0.000 A 
ATOM      4  C4  BNZ d   1       0.075  -5.998  -0.461  0.00  0.00     0.000 A 
ATOM      5  C5  BNZ d   1      -0.441  -5.180  -1.445  0.00  0.00     0.000 A 
ATOM      6  C6  BNZ d   1       0.021  -3.890  -1.580  0.00  0.00     0.000 A 
ENDROOT
TORSDOF 0
ENDMDL
