MODEL 1
REMARK minimizedAffinity -0.890018404
REMARK minimizedRMSD -1
REMARK  0 active torsions:
REMARK  status: ('A' for Active; 'I' for Inactive)
ROOT
ATOM      1  C1  BNZ d   1       2.289  -0.894   4.090  0.00  0.00     0.000 A 
ATOM      2  C2  BNZ d   1       1.557  -2.051   4.059  0.00  0.00     0.000 A 
ATOM      3  C3  BNZ d   1       0.723  -2.324   3.011  0.00  0.00     0.000 A 
ATOM      4  C4  BNZ d   1       0.592  -1.423   2.016  0.00  0.00     0.000 A 
ATOM      5  C5  BNZ d   1       1.317  -0.248   2.037  0.00  0.00     0.000 A 
ATOM      6  C6  BNZ d   1       2.185   0.006   3.074  0.00  0.00     0.000 A 
ENDROOT
TORSDOF 0
ENDMDL
