MODEL 1
REMARK minimizedAffinity -2.33110833
REMARK minimizedRMSD -1
REMARK  0 active torsions:
REMARK  status: ('A' for Active; 'I' for Inactive)
ROOT
ATOM      1  C1  BNZ d   1       2.098  -0.627   3.313  0.00  0.00     0.000 A 
ATOM      2  C2  BNZ d   1       2.698   0.469   2.753  0.00  0.00     0.000 A 
ATOM      3  C3  BNZ d   1       2.309   0.930   1.526  0.00  0.00     0.000 A 
ATOM      4  C4  BNZ d   1       1.349   0.273   0.845  0.00  0.00     0.000 A 
ATOM      5  C5  BNZ d   1       0.741  -0.840   1.392  0.00  0.00     0.000 A 
ATOM      6  C6  BNZ d   1       1.108  -1.278   2.643  0.00  0.00     0.000 A 
ENDROOT
TORSDOF 0
ENDMDL
