MODEL 1
REMARK minimizedAffinity 1.08307981
REMARK minimizedRMSD -1
REMARK  0 active torsions:
REMARK  status: ('A' for Active; 'I' for Inactive)
ROOT
ATOM      1  C1  BNZ d   1      -0.572   1.525   1.058  0.00  0.00     0.000 A 
ATOM      2  C2  BNZ d   1       0.547   0.779   1.318  0.00  0.00     0.000 A 
ATOM      3  C3  BNZ d   1       1.779   1.197   0.899  0.00  0.00     0.000 A 
ATOM      4  C4  BNZ d   1       1.886   2.338   0.187  0.00  0.00     0.000 A 
ATOM      5  C5  BNZ d   1       0.766   3.096  -0.091  0.00  0.00     0.000 A 
ATOM      6  C6  BNZ d   1      -0.468   2.692   0.366  0.00  0.00     0.000 A 
ENDROOT
TORSDOF 0
ENDMDL
