MODEL 1
REMARK minimizedAffinity 2.10529447
REMARK minimizedRMSD -1
REMARK  0 active torsions:
REMARK  status: ('A' for Active; 'I' for Inactive)
ROOT
ATOM      1  C1  BNZ d   1       0.752  -3.738  -0.898  0.00  0.00     0.000 A 
ATOM      2  C2  BNZ d   1       0.995  -2.918   0.172  0.00  0.00     0.000 A 
ATOM      3  C3  BNZ d   1       0.127  -1.913   0.495  0.00  0.00     0.000 A 
ATOM      4  C4  BNZ d   1      -0.962  -1.705  -0.274  0.00  0.00     0.000 A 
ATOM      5  C5  BNZ d   1      -1.216  -2.517  -1.361  0.00  0.00     0.000 A 
ATOM      6  C6  BNZ d   1      -0.360  -3.552  -1.660  0.00  0.00     0.000 A 
ENDROOT
TORSDOF 0
ENDMDL
