MODEL 1
REMARK minimizedAffinity -3.94321012
REMARK minimizedRMSD -1
REMARK  1 active torsions:
REMARK  status: ('A' for Active; 'I' for Inactive)
REMARK    1  A    between atoms: C1_2  and  C2_3 
ROOT
ATOM      1  C2  UNL d   1      -0.267   0.087  -0.402  0.00  0.00    -0.077 A 
ATOM      2  C3  UNL d   1      -1.289   0.095   0.558  0.00  0.00     0.002 A 
ATOM      3  C4  UNL d   1      -0.993  -0.110   1.907  0.00  0.00     0.002 A 
ATOM      4  C5  UNL d   1       0.324  -0.321   2.309  0.00  0.00    -0.004 A 
ATOM      5  C6  UNL d   1       1.347  -0.333   1.362  0.00  0.00     0.002 A 
ATOM      6  C7  UNL d   1       1.053  -0.129   0.013  0.00  0.00     0.002 A 
ENDROOT
BRANCH   1   7
ATOM      7  C1  UNL d   1      -0.578   0.357  -1.851  0.00  0.00     0.055 C 
ATOM      8  C   UNL d   1      -0.278   1.802  -2.221  0.00  0.00     0.019 C 
ENDBRANCH   1   7
TORSDOF 1
ENDMDL
