MODEL 1
REMARK minimizedAffinity -4.74776459
REMARK minimizedRMSD -1
REMARK  1 active torsions:
REMARK  status: ('A' for Active; 'I' for Inactive)
REMARK    1  A    between atoms: C1_2  and  C2_3 
ROOT
ATOM      1  C2  UNL d   1       0.796  -0.329   1.152  0.00  0.00    -0.077 A 
ATOM      2  C3  UNL d   1      -0.430  -0.040   0.538  0.00  0.00     0.002 A 
ATOM      3  C4  UNL d   1      -0.626  -0.320  -0.815  0.00  0.00     0.002 A 
ATOM      4  C5  UNL d   1       0.398  -0.895  -1.565  0.00  0.00    -0.004 A 
ATOM      5  C6  UNL d   1       1.623  -1.184  -0.964  0.00  0.00     0.002 A 
ATOM      6  C7  UNL d   1       1.821  -0.904   0.389  0.00  0.00     0.002 A 
ENDROOT
BRANCH   1   7
ATOM      7  C1  UNL d   1       0.993  -0.073   2.624  0.00  0.00     0.055 C 
ATOM      8  C   UNL d   1       1.788  -1.193   3.279  0.00  0.00     0.019 C 
ENDBRANCH   1   7
TORSDOF 1
ENDMDL
