MODEL 1
REMARK minimizedAffinity -5.33192873
REMARK minimizedRMSD -1
REMARK  1 active torsions:
REMARK  status: ('A' for Active; 'I' for Inactive)
REMARK    1  A    between atoms: C1_2  and  C2_3 
ROOT
ATOM      1  C2  UNL d   1      -0.122   0.190   0.161  0.00  0.00    -0.077 A 
ATOM      2  C3  UNL d   1       1.185  -0.086   0.586  0.00  0.00     0.002 A 
ATOM      3  C4  UNL d   1       1.444  -0.383   1.926  0.00  0.00     0.002 A 
ATOM      4  C5  UNL d   1       0.401  -0.411   2.849  0.00  0.00    -0.004 A 
ATOM      5  C6  UNL d   1      -0.902  -0.136   2.437  0.00  0.00     0.002 A 
ATOM      6  C7  UNL d   1      -1.163   0.162   1.099  0.00  0.00     0.002 A 
ENDROOT
BRANCH   1   7
ATOM      7  C1  UNL d   1      -0.411   0.462  -1.292  0.00  0.00     0.055 C 
ATOM      8  C   UNL d   1      -0.226   1.935  -1.627  0.00  0.00     0.019 C 
ENDBRANCH   1   7
TORSDOF 1
ENDMDL
