MODEL 1
REMARK minimizedAffinity -4.52163124
REMARK minimizedRMSD -1
REMARK  1 active torsions:
REMARK  status: ('A' for Active; 'I' for Inactive)
REMARK    1  A    between atoms: C1_2  and  C2_3 
ROOT
ATOM      1  C2  UNL d   1       0.846  -0.029   1.404  0.00  0.00    -0.077 A 
ATOM      2  C3  UNL d   1      -0.546   0.135   1.401  0.00  0.00     0.002 A 
ATOM      3  C4  UNL d   1      -1.242   0.245   0.196  0.00  0.00     0.002 A 
ATOM      4  C5  UNL d   1      -0.554   0.188  -1.015  0.00  0.00    -0.004 A 
ATOM      5  C6  UNL d   1       0.831   0.027  -1.023  0.00  0.00     0.002 A 
ATOM      6  C7  UNL d   1       1.528  -0.082   0.181  0.00  0.00     0.002 A 
ENDROOT
BRANCH   1   7
ATOM      7  C1  UNL d   1       1.592  -0.197   2.702  0.00  0.00     0.055 C 
ATOM      8  C   UNL d   1       1.222  -1.504   3.388  0.00  0.00     0.019 C 
ENDBRANCH   1   7
TORSDOF 1
ENDMDL
