MODEL 1
REMARK minimizedAffinity -5.25637817
REMARK minimizedRMSD -1
REMARK  1 active torsions:
REMARK  status: ('A' for Active; 'I' for Inactive)
REMARK    1  A    between atoms: C1_2  and  C2_3 
ROOT
ATOM      1  C2  UNL d   1       0.125  -0.155   0.080  0.00  0.00    -0.077 A 
ATOM      2  C3  UNL d   1      -0.784  -0.268   1.142  0.00  0.00     0.002 A 
ATOM      3  C4  UNL d   1      -0.329  -0.530   2.436  0.00  0.00     0.002 A 
ATOM      4  C5  UNL d   1       1.035  -0.678   2.680  0.00  0.00    -0.004 A 
ATOM      5  C6  UNL d   1       1.946  -0.570   1.630  0.00  0.00     0.002 A 
ATOM      6  C7  UNL d   1       1.493  -0.309   0.336  0.00  0.00     0.002 A 
ENDROOT
BRANCH   1   7
ATOM      7  C1  UNL d   1      -0.360   0.177  -1.307  0.00  0.00     0.055 C 
ATOM      8  C   UNL d   1      -0.230   1.665  -1.597  0.00  0.00     0.019 C 
ENDBRANCH   1   7
TORSDOF 1
ENDMDL
