MODEL 1
REMARK minimizedAffinity -5.12351036
REMARK minimizedRMSD -1
REMARK  1 active torsions:
REMARK  status: ('A' for Active; 'I' for Inactive)
REMARK    1  A    between atoms: C1_2  and  C2_3 
ROOT
ATOM      1  C2  UNL d   1       0.378   0.379   0.783  0.00  0.00    -0.077 A 
ATOM      2  C3  UNL d   1       1.767   0.192   0.819  0.00  0.00     0.002 A 
ATOM      3  C4  UNL d   1       2.362  -0.476   1.891  0.00  0.00     0.002 A 
ATOM      4  C5  UNL d   1       1.576  -0.967   2.931  0.00  0.00    -0.004 A 
ATOM      5  C6  UNL d   1       0.194  -0.785   2.905  0.00  0.00     0.002 A 
ATOM      6  C7  UNL d   1      -0.402  -0.116   1.836  0.00  0.00     0.002 A 
ENDROOT
BRANCH   1   7
ATOM      7  C1  UNL d   1      -0.271   1.056  -0.396  0.00  0.00     0.055 C 
ATOM      8  C   UNL d   1      -0.980   0.050  -1.291  0.00  0.00     0.019 C 
ENDBRANCH   1   7
TORSDOF 1
ENDMDL
