MODEL 1
REMARK minimizedAffinity -5.08483505
REMARK minimizedRMSD -1
REMARK  1 active torsions:
REMARK  status: ('A' for Active; 'I' for Inactive)
REMARK    1  A    between atoms: C1_2  and  C2_3 
ROOT
ATOM      1  C2  UNL d   1      -0.441   0.175  -0.088  0.00  0.00    -0.077 A 
ATOM      2  C3  UNL d   1      -1.400  -0.268   0.833  0.00  0.00     0.002 A 
ATOM      3  C4  UNL d   1      -1.004  -0.852   2.039  0.00  0.00     0.002 A 
ATOM      4  C5  UNL d   1       0.350  -0.993   2.335  0.00  0.00    -0.004 A 
ATOM      5  C6  UNL d   1       1.311  -0.557   1.424  0.00  0.00     0.002 A 
ATOM      6  C7  UNL d   1       0.918   0.025   0.218  0.00  0.00     0.002 A 
ENDROOT
BRANCH   1   7
ATOM      7  C1  UNL d   1      -0.865   0.850  -1.367  0.00  0.00     0.055 C 
ATOM      8  C   UNL d   1      -0.160   2.185  -1.549  0.00  0.00     0.019 C 
ENDBRANCH   1   7
TORSDOF 1
ENDMDL
