MODEL 1
REMARK minimizedAffinity -4.84746933
REMARK minimizedRMSD -1
REMARK  1 active torsions:
REMARK  status: ('A' for Active; 'I' for Inactive)
REMARK    1  A    between atoms: C1_2  and  C2_3 
ROOT
ATOM      1  C2  UNL d   1       1.117  -0.260   0.570  0.00  0.00    -0.077 A 
ATOM      2  C3  UNL d   1       1.646  -0.862  -0.580  0.00  0.00     0.002 A 
ATOM      3  C4  UNL d   1       0.905  -0.899  -1.762  0.00  0.00     0.002 A 
ATOM      4  C5  UNL d   1      -0.367  -0.332  -1.807  0.00  0.00    -0.004 A 
ATOM      5  C6  UNL d   1      -0.903   0.267  -0.668  0.00  0.00     0.002 A 
ATOM      6  C7  UNL d   1      -0.164   0.304   0.515  0.00  0.00     0.002 A 
ENDROOT
BRANCH   1   7
ATOM      7  C1  UNL d   1       1.935  -0.175   1.833  0.00  0.00     0.055 C 
ATOM      8  C   UNL d   1       1.356  -1.059   2.928  0.00  0.00     0.019 C 
ENDBRANCH   1   7
TORSDOF 1
ENDMDL
