MODEL 1
REMARK minimizedAffinity 5.20136213
REMARK minimizedRMSD -1
REMARK  1 active torsions:
REMARK  status: ('A' for Active; 'I' for Inactive)
REMARK    1  A    between atoms: C1_2  and  C2_3 
ROOT
ATOM      1  C2  UNL d   1      -0.297   2.422   1.154  0.00  0.00    -0.081 A 
ATOM      2  C3  UNL d   1       0.794   1.997   1.922  0.00  0.00     0.006 A 
ATOM      3  C4  UNL d   1       1.793   1.203   1.355  0.00  0.00     0.002 A 
ATOM      4  C5  UNL d   1       1.723   0.827   0.009  0.00  0.00    -0.080 A 
ATOM      5  C6  UNL d   1       2.804   0.000  -0.620  0.00  0.00     0.076 C 
ATOM      6  C7  UNL d   1       0.624   1.237  -0.754  0.00  0.00     0.002 A 
ATOM      7  C8  UNL d   1      -0.376   2.030  -0.187  0.00  0.00     0.006 A 
ENDROOT
BRANCH   1   8
ATOM      8  C1  UNL d   1      -1.343   3.332   1.746  0.00  0.00     0.054 C 
ATOM      9  C   UNL d   1      -0.805   4.743   1.935  0.00  0.00     0.018 C 
ENDBRANCH   1   8
TORSDOF 1
ENDMDL
