MODEL 1
REMARK minimizedAffinity 10.025485
REMARK minimizedRMSD -1
REMARK  1 active torsions:
REMARK  status: ('A' for Active; 'I' for Inactive)
REMARK    1  A    between atoms: C1_2  and  C2_3 
ROOT
ATOM      1  C2  UNL d   1       2.205   0.577   3.858  0.00  0.00    -0.081 A 
ATOM      2  C3  UNL d   1       3.102   1.412   3.181  0.00  0.00     0.006 A 
ATOM      3  C4  UNL d   1       4.132   2.053   3.872  0.00  0.00     0.002 A 
ATOM      4  C5  UNL d   1       4.288   1.864   5.250  0.00  0.00    -0.080 A 
ATOM      5  C6  UNL d   1       5.408   2.523   5.998  0.00  0.00     0.076 C 
ATOM      6  C7  UNL d   1       3.382   1.044   5.930  0.00  0.00     0.002 A 
ATOM      7  C8  UNL d   1       2.351   0.403   5.239  0.00  0.00     0.006 A 
ENDROOT
BRANCH   1   8
ATOM      8  C1  UNL d   1       1.132  -0.167   3.105  0.00  0.00     0.054 C 
ATOM      9  C   UNL d   1       0.383   0.755   2.154  0.00  0.00     0.018 C 
ENDBRANCH   1   8
TORSDOF 1
ENDMDL
