MODEL 1
REMARK minimizedAffinity 9.68464088
REMARK minimizedRMSD -1
REMARK  1 active torsions:
REMARK  status: ('A' for Active; 'I' for Inactive)
REMARK    1  A    between atoms: C1_2  and  C2_3 
ROOT
ATOM      1  C2  UNL d   1       2.761   2.411   5.423  0.00  0.00    -0.081 A 
ATOM      2  C3  UNL d   1       2.286   3.596   5.998  0.00  0.00     0.006 A 
ATOM      3  C4  UNL d   1       3.064   4.755   5.975  0.00  0.00     0.002 A 
ATOM      4  C5  UNL d   1       4.326   4.752   5.371  0.00  0.00    -0.080 A 
ATOM      5  C6  UNL d   1       5.158   5.998   5.313  0.00  0.00     0.076 C 
ATOM      6  C7  UNL d   1       4.808   3.563   4.812  0.00  0.00     0.002 A 
ATOM      7  C8  UNL d   1       4.030   2.403   4.835  0.00  0.00     0.006 A 
ENDROOT
BRANCH   1   8
ATOM      8  C1  UNL d   1       1.897   1.175   5.388  0.00  0.00     0.054 C 
ATOM      9  C   UNL d   1       1.549   0.784   3.960  0.00  0.00     0.018 C 
ENDBRANCH   1   8
TORSDOF 1
ENDMDL
