MODEL 1
REMARK minimizedAffinity 9.80520153
REMARK minimizedRMSD -1
REMARK  1 active torsions:
REMARK  status: ('A' for Active; 'I' for Inactive)
REMARK    1  A    between atoms: C1_2  and  C2_3 
ROOT
ATOM      1  C2  UNL d   1       0.197   2.369   1.555  0.00  0.00    -0.081 A 
ATOM      2  C3  UNL d   1      -0.426   3.623   1.518  0.00  0.00     0.006 A 
ATOM      3  C4  UNL d   1       0.134   4.712   2.189  0.00  0.00     0.002 A 
ATOM      4  C5  UNL d   1       1.330   4.569   2.901  0.00  0.00    -0.080 A 
ATOM      5  C6  UNL d   1       1.959   5.738   3.600  0.00  0.00     0.076 C 
ATOM      6  C7  UNL d   1       1.944   3.313   2.952  0.00  0.00     0.002 A 
ATOM      7  C8  UNL d   1       1.384   2.223   2.282  0.00  0.00     0.006 A 
ENDROOT
BRANCH   1   8
ATOM      8  C1  UNL d   1      -0.370   1.208   0.779  0.00  0.00     0.054 C 
ATOM      9  C   UNL d   1      -0.204   1.410  -0.720  0.00  0.00     0.018 C 
ENDBRANCH   1   8
TORSDOF 1
ENDMDL
