MODEL 1
REMARK minimizedAffinity 4.05766582
REMARK minimizedRMSD -1
REMARK  1 active torsions:
REMARK  status: ('A' for Active; 'I' for Inactive)
REMARK    1  A    between atoms: C1_2  and  C2_3 
ROOT
ATOM      1  C2  UNL d   1       3.534  -1.739  -1.254  0.00  0.00    -0.081 A 
ATOM      2  C3  UNL d   1       3.092  -2.268  -2.473  0.00  0.00     0.006 A 
ATOM      3  C4  UNL d   1       2.046  -3.192  -2.506  0.00  0.00     0.002 A 
ATOM      4  C5  UNL d   1       1.419  -3.598  -1.323  0.00  0.00    -0.080 A 
ATOM      5  C6  UNL d   1       0.275  -4.567  -1.347  0.00  0.00     0.076 C 
ATOM      6  C7  UNL d   1       1.872  -3.083  -0.103  0.00  0.00     0.002 A 
ATOM      7  C8  UNL d   1       2.919  -2.159  -0.070  0.00  0.00     0.006 A 
ENDROOT
BRANCH   1   8
ATOM      8  C1  UNL d   1       4.619  -0.693  -1.221  0.00  0.00     0.054 C 
ATOM      9  C   UNL d   1       4.063   0.669  -0.829  0.00  0.00     0.018 C 
ENDBRANCH   1   8
TORSDOF 1
ENDMDL
