MODEL 1
REMARK minimizedAffinity 14.7102623
REMARK minimizedRMSD -1
REMARK  1 active torsions:
REMARK  status: ('A' for Active; 'I' for Inactive)
REMARK    1  A    between atoms: C1_2  and  C2_3 
ROOT
ATOM      1  C2  UNL d   1       3.049  -0.122   0.101  0.00  0.00    -0.081 A 
ATOM      2  C3  UNL d   1       4.334   0.202   0.553  0.00  0.00     0.006 A 
ATOM      3  C4  UNL d   1       5.295   0.690  -0.335  0.00  0.00     0.002 A 
ATOM      4  C5  UNL d   1       4.986   0.871  -1.687  0.00  0.00    -0.080 A 
ATOM      5  C6  UNL d   1       5.999   1.424  -2.645  0.00  0.00     0.076 C 
ATOM      6  C7  UNL d   1       3.707   0.532  -2.142  0.00  0.00     0.002 A 
ATOM      7  C8  UNL d   1       2.746   0.042  -1.255  0.00  0.00     0.006 A 
ENDROOT
BRANCH   1   8
ATOM      8  C1  UNL d   1       1.991  -0.588   1.068  0.00  0.00     0.054 C 
ATOM      9  C   UNL d   1       0.998   0.523   1.379  0.00  0.00     0.018 C 
ENDBRANCH   1   8
TORSDOF 1
ENDMDL
