MODEL 1
REMARK minimizedAffinity 4.8577776
REMARK minimizedRMSD -1
REMARK  0 active torsions:
REMARK  status: ('A' for Active; 'I' for Inactive)
ROOT
ATOM      1  C   UNL d   1       5.955   3.934   3.781  0.00  0.00     0.172 C 
ATOM      2  N   UNL d   1       4.948   4.508   4.643  0.00  0.00    -0.070 N 
ATOM      3  C1  UNL d   1       3.944   3.818   5.267  0.00  0.00    -0.004 A 
ATOM      4  C2  UNL d   1       3.199   4.721   5.994  0.00  0.00    -0.047 A 
ATOM      5  C3  UNL d   1       3.775   5.999   5.798  0.00  0.00    -0.047 A 
ATOM      6  C4  UNL d   1       4.856   5.838   4.958  0.00  0.00    -0.004 A 
ENDROOT
TORSDOF 0
ENDMDL
