MODEL 1
REMARK minimizedAffinity 7.17328978
REMARK minimizedRMSD -1
REMARK  0 active torsions:
REMARK  status: ('A' for Active; 'I' for Inactive)
ROOT
ATOM      1  C   UNL d   1      -0.765  -5.041   1.051  0.00  0.00     0.172 C 
ATOM      2  N   UNL d   1      -1.321  -3.756   0.696  0.00  0.00    -0.070 N 
ATOM      3  C1  UNL d   1      -0.612  -2.677   0.241  0.00  0.00    -0.004 A 
ATOM      4  C2  UNL d   1      -1.503  -1.651   0.016  0.00  0.00    -0.047 A 
ATOM      5  C3  UNL d   1      -2.793  -2.129   0.348  0.00  0.00    -0.047 A 
ATOM      6  C4  UNL d   1      -2.651  -3.435   0.766  0.00  0.00    -0.004 A 
ENDROOT
TORSDOF 0
ENDMDL
