MODEL 1
REMARK minimizedAffinity 2.53549123
REMARK minimizedRMSD -1
REMARK  0 active torsions:
REMARK  status: ('A' for Active; 'I' for Inactive)
ROOT
ATOM      1  C   UNL d   1      -1.172  -4.908   0.219  0.00  0.00     0.172 C 
ATOM      2  N   UNL d   1      -1.417  -3.499   0.017  0.00  0.00    -0.070 N 
ATOM      3  C1  UNL d   1      -1.491  -2.868  -1.196  0.00  0.00    -0.004 A 
ATOM      4  C2  UNL d   1      -1.738  -1.532  -0.963  0.00  0.00    -0.047 A 
ATOM      5  C3  UNL d   1      -1.814  -1.354   0.439  0.00  0.00    -0.047 A 
ATOM      6  C4  UNL d   1      -1.612  -2.588   1.021  0.00  0.00    -0.004 A 
ENDROOT
TORSDOF 0
ENDMDL
