MODEL 1
REMARK minimizedAffinity 7.60137463
REMARK minimizedRMSD -1
REMARK  0 active torsions:
REMARK  status: ('A' for Active; 'I' for Inactive)
ROOT
ATOM      1  C   UNL d   1       6.000   0.945   1.946  0.00  0.00     0.172 C 
ATOM      2  N   UNL d   1       4.914   1.686   1.348  0.00  0.00    -0.070 N 
ATOM      3  C1  UNL d   1       3.646   1.791   1.853  0.00  0.00    -0.004 A 
ATOM      4  C2  UNL d   1       2.914   2.581   0.993  0.00  0.00    -0.047 A 
ATOM      5  C3  UNL d   1       3.771   2.963  -0.066  0.00  0.00    -0.047 A 
ATOM      6  C4  UNL d   1       5.004   2.395   0.179  0.00  0.00    -0.004 A 
ENDROOT
TORSDOF 0
ENDMDL
