MODEL 1
REMARK minimizedAffinity 5.70856428
REMARK minimizedRMSD -1
REMARK  0 active torsions:
REMARK  status: ('A' for Active; 'I' for Inactive)
ROOT
ATOM      1  C   UNL d   1       2.939   0.005  -2.273  0.00  0.00     0.172 C 
ATOM      2  N   UNL d   1       4.184  -0.009  -3.005  0.00  0.00    -0.070 N 
ATOM      3  C1  UNL d   1       4.867   1.096  -3.440  0.00  0.00    -0.004 A 
ATOM      4  C2  UNL d   1       6.000   0.662  -4.093  0.00  0.00    -0.047 A 
ATOM      5  C3  UNL d   1       5.998  -0.753  -4.050  0.00  0.00    -0.047 A 
ATOM      6  C4  UNL d   1       4.862  -1.141  -3.371  0.00  0.00    -0.004 A 
ENDROOT
TORSDOF 0
ENDMDL
