MODEL 1
REMARK minimizedAffinity 9.57291603
REMARK minimizedRMSD -1
REMARK  0 active torsions:
REMARK  status: ('A' for Active; 'I' for Inactive)
ROOT
ATOM      1  C   UNL d   1      -5.665   2.291   5.869  0.00  0.00     0.172 C 
ATOM      2  N   UNL d   1      -4.565   1.356   5.858  0.00  0.00    -0.070 N 
ATOM      3  C1  UNL d   1      -4.670  -0.002   6.000  0.00  0.00    -0.004 A 
ATOM      4  C2  UNL d   1      -3.400  -0.533   5.934  0.00  0.00    -0.047 A 
ATOM      5  C3  UNL d   1      -2.500   0.543   5.746  0.00  0.00    -0.047 A 
ATOM      6  C4  UNL d   1      -3.248   1.701   5.703  0.00  0.00    -0.004 A 
ENDROOT
TORSDOF 0
ENDMDL
