MODEL 1
REMARK minimizedAffinity 3.64755607
REMARK minimizedRMSD -1
REMARK  0 active torsions:
REMARK  status: ('A' for Active; 'I' for Inactive)
ROOT
ATOM      1  C   UNL d   1      -2.194  -3.769   3.475  0.00  0.00     0.172 C 
ATOM      2  N   UNL d   1      -1.791  -3.432   2.130  0.00  0.00    -0.070 N 
ATOM      3  C1  UNL d   1      -2.327  -2.432   1.363  0.00  0.00    -0.004 A 
ATOM      4  C2  UNL d   1      -1.672  -2.434   0.150  0.00  0.00    -0.047 A 
ATOM      5  C3  UNL d   1      -0.711  -3.472   0.190  0.00  0.00    -0.047 A 
ATOM      6  C4  UNL d   1      -0.806  -4.073   1.427  0.00  0.00    -0.004 A 
ENDROOT
TORSDOF 0
ENDMDL
