MODEL 1
REMARK minimizedAffinity 2.54639077
REMARK minimizedRMSD -1
REMARK  0 active torsions:
REMARK  status: ('A' for Active; 'I' for Inactive)
ROOT
ATOM      1  C   UNL d   1      -2.599  -1.288   0.398  0.00  0.00     0.172 C 
ATOM      2  N   UNL d   1      -1.725  -2.424   0.227  0.00  0.00    -0.070 N 
ATOM      3  C1  UNL d   1      -1.198  -2.853  -0.962  0.00  0.00    -0.004 A 
ATOM      4  C2  UNL d   1      -0.419  -3.961  -0.703  0.00  0.00    -0.047 A 
ATOM      5  C3  UNL d   1      -0.482  -4.206   0.689  0.00  0.00    -0.047 A 
ATOM      6  C4  UNL d   1      -1.297  -3.240   1.240  0.00  0.00    -0.004 A 
ENDROOT
TORSDOF 0
ENDMDL
