MODEL 1
REMARK minimizedAffinity 4.90643406
REMARK minimizedRMSD -1
REMARK  0 active torsions:
REMARK  status: ('A' for Active; 'I' for Inactive)
ROOT
ATOM      1  C   UNL d   1      -5.991   6.000  -5.973  0.00  0.00     0.172 C 
ATOM      2  N   UNL d   1      -4.893   5.367  -5.280  0.00  0.00    -0.070 N 
ATOM      3  C1  UNL d   1      -4.515   4.057  -5.412  0.00  0.00    -0.004 A 
ATOM      4  C2  UNL d   1      -3.431   3.846  -4.588  0.00  0.00    -0.047 A 
ATOM      5  C3  UNL d   1      -3.147   5.071  -3.939  0.00  0.00    -0.047 A 
ATOM      6  C4  UNL d   1      -4.068   5.995  -4.385  0.00  0.00    -0.004 A 
ENDROOT
TORSDOF 0
ENDMDL
