MODEL 1
REMARK minimizedAffinity 5.17349911
REMARK minimizedRMSD -1
REMARK  0 active torsions:
REMARK  status: ('A' for Active; 'I' for Inactive)
ROOT
ATOM      1  C   UNL d   1       4.916   0.173  -3.214  0.00  0.00     0.172 C 
ATOM      2  N   UNL d   1       3.804   0.696  -2.456  0.00  0.00    -0.070 N 
ATOM      3  C1  UNL d   1       2.685   1.284  -2.983  0.00  0.00    -0.004 A 
ATOM      4  C2  UNL d   1       1.865   1.645  -1.936  0.00  0.00    -0.047 A 
ATOM      5  C3  UNL d   1       2.514   1.262  -0.738  0.00  0.00    -0.047 A 
ATOM      6  C4  UNL d   1       3.712   0.677  -1.089  0.00  0.00    -0.004 A 
ENDROOT
TORSDOF 0
ENDMDL
