MODEL 1
REMARK minimizedAffinity 5.69574928
REMARK minimizedRMSD -1
REMARK  0 active torsions:
REMARK  status: ('A' for Active; 'I' for Inactive)
ROOT
ATOM      1  C   UNL d   1      -2.815   3.397  -4.863  0.00  0.00     0.172 C 
ATOM      2  N   UNL d   1      -3.916   4.331  -4.896  0.00  0.00    -0.070 N 
ATOM      3  C1  UNL d   1      -4.145   5.329  -3.987  0.00  0.00    -0.004 A 
ATOM      4  C2  UNL d   1      -5.289   5.995  -4.369  0.00  0.00    -0.047 A 
ATOM      5  C3  UNL d   1      -5.765   5.375  -5.549  0.00  0.00    -0.047 A 
ATOM      6  C4  UNL d   1      -4.896   4.349  -5.853  0.00  0.00    -0.004 A 
ENDROOT
TORSDOF 0
ENDMDL
