MODEL 1
REMARK minimizedAffinity 5.27587032
REMARK minimizedRMSD -1
REMARK  0 active torsions:
REMARK  status: ('A' for Active; 'I' for Inactive)
ROOT
ATOM      1  C   UNL d   1      -4.509   5.949  -3.151  0.00  0.00     0.172 C 
ATOM      2  N   UNL d   1      -4.878   5.472  -1.839  0.00  0.00    -0.070 N 
ATOM      3  C1  UNL d   1      -4.186   4.550  -1.100  0.00  0.00    -0.004 A 
ATOM      4  C2  UNL d   1      -4.861   4.367   0.087  0.00  0.00    -0.047 A 
ATOM      5  C3  UNL d   1      -6.000   5.207   0.060  0.00  0.00    -0.047 A 
ATOM      6  C4  UNL d   1      -5.986   5.880  -1.143  0.00  0.00    -0.004 A 
ENDROOT
TORSDOF 0
ENDMDL
