MODEL 1
REMARK minimizedAffinity 5.24524212
REMARK minimizedRMSD -1
REMARK  0 active torsions:
REMARK  status: ('A' for Active; 'I' for Inactive)
ROOT
ATOM      1  C   UNL d   1      -2.488   0.743   5.988  0.00  0.00     0.172 C 
ATOM      2  N   UNL d   1      -3.738   1.466   5.991  0.00  0.00    -0.070 N 
ATOM      3  C1  UNL d   1      -3.873   2.828   5.998  0.00  0.00    -0.004 A 
ATOM      4  C2  UNL d   1      -5.220   3.119   5.999  0.00  0.00    -0.047 A 
ATOM      5  C3  UNL d   1      -5.919   1.889   5.993  0.00  0.00    -0.047 A 
ATOM      6  C4  UNL d   1      -4.978   0.882   5.989  0.00  0.00    -0.004 A 
ENDROOT
TORSDOF 0
ENDMDL
