MODEL 1
REMARK minimizedAffinity 3.98767304
REMARK minimizedRMSD -1
REMARK  0 active torsions:
REMARK  status: ('A' for Active; 'I' for Inactive)
ROOT
ATOM      1  C   UNL d   1      -2.708   4.072  -4.532  0.00  0.00     0.172 C 
ATOM      2  N   UNL d   1      -3.994   4.637  -4.866  0.00  0.00    -0.070 N 
ATOM      3  C1  UNL d   1      -4.499   5.814  -4.383  0.00  0.00    -0.004 A 
ATOM      4  C2  UNL d   1      -5.746   6.000  -4.940  0.00  0.00    -0.047 A 
ATOM      5  C3  UNL d   1      -6.000   4.895  -5.787  0.00  0.00    -0.047 A 
ATOM      6  C4  UNL d   1      -4.899   4.066  -5.722  0.00  0.00    -0.004 A 
ENDROOT
TORSDOF 0
ENDMDL
