MODEL 1
REMARK minimizedAffinity 6.25292492
REMARK minimizedRMSD -1
REMARK  0 active torsions:
REMARK  status: ('A' for Active; 'I' for Inactive)
ROOT
ATOM      1  C   UNL d   1      -5.081   2.226   5.999  0.00  0.00     0.172 C 
ATOM      2  N   UNL d   1      -4.393   0.964   5.869  0.00  0.00    -0.070 N 
ATOM      3  C1  UNL d   1      -3.060   0.805   5.596  0.00  0.00    -0.004 A 
ATOM      4  C2  UNL d   1      -2.796  -0.547   5.554  0.00  0.00    -0.047 A 
ATOM      5  C3  UNL d   1      -4.012  -1.224   5.809  0.00  0.00    -0.047 A 
ATOM      6  C4  UNL d   1      -4.984  -0.265   6.000  0.00  0.00    -0.004 A 
ENDROOT
TORSDOF 0
ENDMDL
