MODEL 1
REMARK minimizedAffinity 2.49501181
REMARK minimizedRMSD -1
REMARK  0 active torsions:
REMARK  status: ('A' for Active; 'I' for Inactive)
ROOT
ATOM      1  C   UNL d   1      -5.810   4.584  -5.851  0.00  0.00     0.172 C 
ATOM      2  N   UNL d   1      -4.530   4.141  -5.352  0.00  0.00    -0.070 N 
ATOM      3  C1  UNL d   1      -3.704   4.856  -4.525  0.00  0.00    -0.004 A 
ATOM      4  C2  UNL d   1      -2.586   4.089  -4.279  0.00  0.00    -0.047 A 
ATOM      5  C3  UNL d   1      -2.744   2.871  -4.983  0.00  0.00    -0.047 A 
ATOM      6  C4  UNL d   1      -3.956   2.931  -5.639  0.00  0.00    -0.004 A 
ENDROOT
TORSDOF 0
ENDMDL
