MODEL 1
REMARK minimizedAffinity 12.742651
REMARK minimizedRMSD -1
REMARK  0 active torsions:
REMARK  status: ('A' for Active; 'I' for Inactive)
ROOT
ATOM      1  C   UNL d   1       5.626   0.730   2.576  0.00  0.00     0.172 C 
ATOM      2  N   UNL d   1       5.276   1.670   1.536  0.00  0.00    -0.070 N 
ATOM      3  C1  UNL d   1       4.182   2.492   1.539  0.00  0.00    -0.004 A 
ATOM      4  C2  UNL d   1       4.206   3.231   0.376  0.00  0.00    -0.047 A 
ATOM      5  C3  UNL d   1       5.355   2.838  -0.352  0.00  0.00    -0.047 A 
ATOM      6  C4  UNL d   1       5.999   1.870   0.390  0.00  0.00    -0.004 A 
ENDROOT
TORSDOF 0
ENDMDL
