MODEL 1
REMARK minimizedAffinity -3.62618327
REMARK minimizedRMSD -1
REMARK  2 active torsions:
REMARK  status: ('A' for Active; 'I' for Inactive)
REMARK    1  A    between atoms: C2'_3  and  C1'_4 
REMARK    2  A    between atoms: C1'_4  and  C1_5 
ROOT
ATOM      1  C1  I4B d   1       0.264  -0.399  -0.732  0.00  0.00    -0.075 A 
ATOM      2  C2  I4B d   1      -0.990   0.052  -0.403  0.00  0.00     0.003 A 
ATOM      3  C3  I4B d   1      -1.308   0.358   0.942  0.00  0.00     0.002 A 
ATOM      4  C4  I4B d   1      -0.364   0.151   1.927  0.00  0.00    -0.004 A 
ATOM      5  C5  I4B d   1       0.914  -0.284   1.590  0.00  0.00     0.002 A 
ATOM      6  C6  I4B d   1       1.235  -0.549   0.250  0.00  0.00     0.003 A 
ENDROOT
BRANCH   1   7
ATOM      7  C1' I4B d   1       0.556  -0.744  -2.158  0.00  0.00     0.060 C 
BRANCH   7   8
ATOM      8  C2' I4B d   1       0.976   0.527  -2.868  0.00  0.00    -0.013 C 
ATOM      9  C4' I4B d   1       2.425   0.844  -2.606  0.00  0.00     0.013 C 
ATOM     10  C3' I4B d   1       0.719   0.344  -4.334  0.00  0.00     0.013 C 
ENDBRANCH   7   8
ENDBRANCH   1   7
TORSDOF 2
ENDMDL
