MODEL 1
REMARK minimizedAffinity -5.16703939
REMARK minimizedRMSD -1
REMARK  2 active torsions:
REMARK  status: ('A' for Active; 'I' for Inactive)
REMARK    1  A    between atoms: C2'_3  and  C1'_4 
REMARK    2  A    between atoms: C1'_4  and  C1_5 
ROOT
ATOM      1  C1  I4B d   1       0.635  -0.428  -1.010  0.00  0.00    -0.075 A 
ATOM      2  C2  I4B d   1       1.774  -0.495  -0.247  0.00  0.00     0.003 A 
ATOM      3  C3  I4B d   1       1.732  -0.156   1.127  0.00  0.00     0.002 A 
ATOM      4  C4  I4B d   1       0.550   0.290   1.681  0.00  0.00    -0.004 A 
ATOM      5  C5  I4B d   1      -0.609   0.336   0.911  0.00  0.00     0.002 A 
ATOM      6  C6  I4B d   1      -0.569  -0.037  -0.440  0.00  0.00     0.003 A 
ENDROOT
BRANCH   1   7
ATOM      7  C1' I4B d   1       0.723  -0.761  -2.466  0.00  0.00     0.060 C 
BRANCH   7   8
ATOM      8  C2' I4B d   1       0.840   0.538  -3.236  0.00  0.00    -0.013 C 
ATOM      9  C4' I4B d   1       2.261   0.791  -3.666  0.00  0.00     0.013 C 
ATOM     10  C3' I4B d   1      -0.078   0.459  -4.420  0.00  0.00     0.013 C 
ENDBRANCH   7   8
ENDBRANCH   1   7
TORSDOF 2
ENDMDL
