MODEL 1
REMARK minimizedAffinity -3.61908531
REMARK minimizedRMSD -1
REMARK  2 active torsions:
REMARK  status: ('A' for Active; 'I' for Inactive)
REMARK    1  A    between atoms: C2'_3  and  C1'_4 
REMARK    2  A    between atoms: C1'_4  and  C1_5 
ROOT
ATOM      1  C1  I4B d   1       0.786  -0.124  -0.221  0.00  0.00    -0.075 A 
ATOM      2  C2  I4B d   1      -0.470   0.393  -0.020  0.00  0.00     0.003 A 
ATOM      3  C3  I4B d   1      -0.781   1.060   1.190  0.00  0.00     0.002 A 
ATOM      4  C4  I4B d   1       0.171   1.141   2.185  0.00  0.00    -0.004 A 
ATOM      5  C5  I4B d   1       1.450   0.637   1.971  0.00  0.00     0.002 A 
ATOM      6  C6  I4B d   1       1.764   0.011   0.756  0.00  0.00     0.003 A 
ENDROOT
BRANCH   1   7
ATOM      7  C1' I4B d   1       1.070  -0.850  -1.497  0.00  0.00     0.060 C 
BRANCH   7   8
ATOM      8  C2' I4B d   1       0.921   0.135  -2.638  0.00  0.00    -0.013 C 
ATOM      9  C4' I4B d   1       2.254   0.708  -3.041  0.00  0.00     0.013 C 
ATOM     10  C3' I4B d   1       0.270  -0.580  -3.785  0.00  0.00     0.013 C 
ENDBRANCH   7   8
ENDBRANCH   1   7
TORSDOF 2
ENDMDL
