MODEL 1
REMARK minimizedAffinity -2.98608875
REMARK minimizedRMSD -1
REMARK  2 active torsions:
REMARK  status: ('A' for Active; 'I' for Inactive)
REMARK    1  A    between atoms: C2'_3  and  C1'_4 
REMARK    2  A    between atoms: C1'_4  and  C1_5 
ROOT
ATOM      1  C1  I4B d   1      -0.502   0.384  -1.409  0.00  0.00    -0.075 A 
ATOM      2  C2  I4B d   1      -0.417   0.983  -2.641  0.00  0.00     0.003 A 
ATOM      3  C3  I4B d   1       0.625   0.634  -3.534  0.00  0.00     0.002 A 
ATOM      4  C4  I4B d   1       1.584  -0.276  -3.136  0.00  0.00    -0.004 A 
ATOM      5  C5  I4B d   1       1.484  -0.899  -1.895  0.00  0.00     0.002 A 
ATOM      6  C6  I4B d   1       0.427  -0.576  -1.031  0.00  0.00     0.003 A 
ENDROOT
BRANCH   1   7
ATOM      7  C1' I4B d   1      -1.597   0.801  -0.479  0.00  0.00     0.060 C 
BRANCH   7   8
ATOM      8  C2' I4B d   1      -1.926  -0.379   0.412  0.00  0.00    -0.013 C 
ATOM      9  C4' I4B d   1      -2.355   0.075   1.782  0.00  0.00     0.013 C 
ATOM     10  C3' I4B d   1      -3.006  -1.177  -0.257  0.00  0.00     0.013 C 
ENDBRANCH   7   8
ENDBRANCH   1   7
TORSDOF 2
ENDMDL
