MODEL 1
REMARK minimizedAffinity -5.98314381
REMARK minimizedRMSD -1
REMARK  2 active torsions:
REMARK  status: ('A' for Active; 'I' for Inactive)
REMARK    1  A    between atoms: C2'_3  and  C1'_4 
REMARK    2  A    between atoms: C1'_4  and  C1_5 
ROOT
ATOM      1  C1  I4B d   1       0.078  -0.307   0.047  0.00  0.00    -0.075 A 
ATOM      2  C2  I4B d   1       0.891   0.363   0.927  0.00  0.00     0.003 A 
ATOM      3  C3  I4B d   1       0.329   1.105   1.994  0.00  0.00     0.002 A 
ATOM      4  C4  I4B d   1      -1.043   1.192   2.113  0.00  0.00    -0.004 A 
ATOM      5  C5  I4B d   1      -1.866   0.493   1.234  0.00  0.00     0.002 A 
ATOM      6  C6  I4B d   1      -1.302  -0.271   0.202  0.00  0.00     0.003 A 
ENDROOT
BRANCH   1   7
ATOM      7  C1' I4B d   1       0.703  -1.054  -1.087  0.00  0.00     0.060 C 
BRANCH   7   8
ATOM      8  C2' I4B d   1       0.183  -0.460  -2.381  0.00  0.00    -0.013 C 
ATOM      9  C4' I4B d   1       1.026   0.707  -2.822  0.00  0.00     0.013 C 
ATOM     10  C3' I4B d   1       0.175  -1.544  -3.417  0.00  0.00     0.013 C 
ENDBRANCH   7   8
ENDBRANCH   1   7
TORSDOF 2
ENDMDL
