MODEL 1
REMARK minimizedAffinity 4.61853647
REMARK minimizedRMSD -1
REMARK  0 active torsions:
REMARK  status: ('A' for Active; 'I' for Inactive)
ROOT
ATOM      1  C2' OXE d   1      -3.808  -0.369  -0.335  0.00  0.00     0.078 C 
ATOM      2  C1' OXE d   1      -2.770  -2.966  -0.584  0.00  0.00     0.078 C 
ATOM      3  C1  OXE d   1      -1.843  -1.881  -0.095  0.00  0.00    -0.078 A 
ATOM      4  C2  OXE d   1      -2.347  -0.604  -0.021  0.00  0.00    -0.078 A 
ATOM      5  C3  OXE d   1      -1.550   0.423   0.475  0.00  0.00     0.003 A 
ATOM      6  C4  OXE d   1      -0.196   0.200   0.754  0.00  0.00    -0.002 A 
ATOM      7  C5  OXE d   1       0.348  -1.085   0.647  0.00  0.00    -0.002 A 
ATOM      8  C6  OXE d   1      -0.471  -2.142   0.266  0.00  0.00     0.003 A 
ENDROOT
TORSDOF 0
ENDMDL
