MODEL 1
REMARK minimizedAffinity -1.06391537
REMARK minimizedRMSD -1
REMARK  0 active torsions:
REMARK  status: ('A' for Active; 'I' for Inactive)
ROOT
ATOM      1  C2' OXE d   1      -5.992  -0.578  -3.093  0.00  0.00     0.078 C 
ATOM      2  C1' OXE d   1      -5.996  -0.481  -5.899  0.00  0.00     0.078 C 
ATOM      3  C1  OXE d   1      -5.619  -1.785  -5.241  0.00  0.00    -0.078 A 
ATOM      4  C2  OXE d   1      -5.575  -1.810  -3.868  0.00  0.00    -0.078 A 
ATOM      5  C3  OXE d   1      -5.286  -3.002  -3.209  0.00  0.00     0.003 A 
ATOM      6  C4  OXE d   1      -4.892  -4.134  -3.933  0.00  0.00    -0.002 A 
ATOM      7  C5  OXE d   1      -4.892  -4.118  -5.331  0.00  0.00    -0.002 A 
ATOM      8  C6  OXE d   1      -5.293  -2.967  -6.000  0.00  0.00     0.003 A 
ENDROOT
TORSDOF 0
ENDMDL
