MODEL 1
REMARK minimizedAffinity -3.92839742
REMARK minimizedRMSD -1
REMARK  0 active torsions:
REMARK  status: ('A' for Active; 'I' for Inactive)
ROOT
ATOM      1  C2' OXE d   1      -5.432  -4.415  -2.861  0.00  0.00     0.078 C 
ATOM      2  C1' OXE d   1      -3.685  -5.001  -4.979  0.00  0.00     0.078 C 
ATOM      3  C1  OXE d   1      -4.361  -3.653  -4.977  0.00  0.00    -0.078 A 
ATOM      4  C2  OXE d   1      -5.249  -3.392  -3.962  0.00  0.00    -0.078 A 
ATOM      5  C3  OXE d   1      -5.859  -2.143  -3.882  0.00  0.00     0.003 A 
ATOM      6  C4  OXE d   1      -5.692  -1.207  -4.910  0.00  0.00    -0.002 A 
ATOM      7  C5  OXE d   1      -4.822  -1.467  -5.974  0.00  0.00    -0.002 A 
ATOM      8  C6  OXE d   1      -4.117  -2.666  -6.000  0.00  0.00     0.003 A 
ENDROOT
TORSDOF 0
ENDMDL
