MODEL 1
REMARK minimizedAffinity 0.0229303204
REMARK minimizedRMSD -1
REMARK  0 active torsions:
REMARK  status: ('A' for Active; 'I' for Inactive)
ROOT
ATOM      1  C2' OXE d   1      -1.404  -5.897  -3.200  0.00  0.00     0.078 C 
ATOM      2  C1' OXE d   1      -1.587  -6.000  -6.000  0.00  0.00     0.078 C 
ATOM      3  C1  OXE d   1      -2.378  -4.935  -5.282  0.00  0.00    -0.078 A 
ATOM      4  C2  OXE d   1      -2.319  -4.921  -3.909  0.00  0.00    -0.078 A 
ATOM      5  C3  OXE d   1      -2.985  -3.926  -3.200  0.00  0.00     0.003 A 
ATOM      6  C4  OXE d   1      -3.837  -3.034  -3.862  0.00  0.00    -0.002 A 
ATOM      7  C5  OXE d   1      -3.943  -3.055  -5.257  0.00  0.00    -0.002 A 
ATOM      8  C6  OXE d   1      -3.188  -3.970  -5.983  0.00  0.00     0.003 A 
ENDROOT
TORSDOF 0
ENDMDL
