MODEL 1
REMARK minimizedAffinity -2.6033082
REMARK minimizedRMSD -1
REMARK  0 active torsions:
REMARK  status: ('A' for Active; 'I' for Inactive)
ROOT
ATOM      1  C2' OXE d   1      -5.924  -5.331  -5.954  0.00  0.00     0.078 C 
ATOM      2  C1' OXE d   1      -5.200  -2.832  -4.901  0.00  0.00     0.078 C 
ATOM      3  C1  OXE d   1      -4.099  -3.826  -5.174  0.00  0.00    -0.078 A 
ATOM      4  C2  OXE d   1      -4.466  -5.063  -5.645  0.00  0.00    -0.078 A 
ATOM      5  C3  OXE d   1      -3.486  -5.998  -5.966  0.00  0.00     0.003 A 
ATOM      6  C4  OXE d   1      -2.142  -5.746  -5.668  0.00  0.00    -0.002 A 
ATOM      7  C5  OXE d   1      -1.750  -4.507  -5.151  0.00  0.00    -0.002 A 
ATOM      8  C6  OXE d   1      -2.709  -3.522  -4.939  0.00  0.00     0.003 A 
ENDROOT
TORSDOF 0
ENDMDL
