MODEL 1
REMARK minimizedAffinity -3.06353331
REMARK minimizedRMSD -1
REMARK  0 active torsions:
REMARK  status: ('A' for Active; 'I' for Inactive)
ROOT
ATOM      1  C2' OXE d   1      -2.836  -5.841  -5.393  0.00  0.00     0.078 C 
ATOM      2  C1' OXE d   1      -2.621  -4.135  -3.175  0.00  0.00     0.078 C 
ATOM      3  C1  OXE d   1      -3.829  -3.983  -4.065  0.00  0.00    -0.078 A 
ATOM      4  C2  OXE d   1      -3.903  -4.790  -5.174  0.00  0.00    -0.078 A 
ATOM      5  C3  OXE d   1      -5.023  -4.728  -5.999  0.00  0.00     0.003 A 
ATOM      6  C4  OXE d   1      -6.000  -3.746  -5.795  0.00  0.00    -0.002 A 
ATOM      7  C5  OXE d   1      -5.924  -2.887  -4.693  0.00  0.00    -0.002 A 
ATOM      8  C6  OXE d   1      -4.870  -3.020  -3.797  0.00  0.00     0.003 A 
ENDROOT
TORSDOF 0
ENDMDL
