MODEL 1
REMARK minimizedAffinity 0.995361626
REMARK minimizedRMSD -1
REMARK  0 active torsions:
REMARK  status: ('A' for Active; 'I' for Inactive)
ROOT
ATOM      1  C2' OXE d   1      -2.775  -6.000  -2.095  0.00  0.00     0.078 C 
ATOM      2  C1' OXE d   1      -0.744  -5.249  -3.881  0.00  0.00     0.078 C 
ATOM      3  C1  OXE d   1      -2.174  -5.084  -4.332  0.00  0.00    -0.078 A 
ATOM      4  C2  OXE d   1      -3.160  -5.498  -3.470  0.00  0.00    -0.078 A 
ATOM      5  C3  OXE d   1      -4.497  -5.317  -3.814  0.00  0.00     0.003 A 
ATOM      6  C4  OXE d   1      -4.845  -4.861  -5.091  0.00  0.00    -0.002 A 
ATOM      7  C5  OXE d   1      -3.855  -4.472  -6.000  0.00  0.00    -0.002 A 
ATOM      8  C6  OXE d   1      -2.519  -4.537  -5.621  0.00  0.00     0.003 A 
ENDROOT
TORSDOF 0
ENDMDL
