MODEL 1
REMARK minimizedAffinity 1.50055885
REMARK minimizedRMSD -1
REMARK  0 active torsions:
REMARK  status: ('A' for Active; 'I' for Inactive)
ROOT
ATOM      1  C2' OXE d   1      -5.999  -0.747  -2.585  0.00  0.00     0.078 C 
ATOM      2  C1' OXE d   1      -5.995   0.012  -5.288  0.00  0.00     0.078 C 
ATOM      3  C1  OXE d   1      -5.873  -1.458  -4.970  0.00  0.00    -0.078 A 
ATOM      4  C2  OXE d   1      -5.829  -1.816  -3.644  0.00  0.00    -0.078 A 
ATOM      5  C3  OXE d   1      -5.772  -3.162  -3.295  0.00  0.00     0.003 A 
ATOM      6  C4  OXE d   1      -5.605  -4.143  -4.280  0.00  0.00    -0.002 A 
ATOM      7  C5  OXE d   1      -5.607  -3.796  -5.635  0.00  0.00    -0.002 A 
ATOM      8  C6  OXE d   1      -5.783  -2.465  -5.997  0.00  0.00     0.003 A 
ENDROOT
TORSDOF 0
ENDMDL
