MODEL 1
REMARK minimizedAffinity -2.67711639
REMARK minimizedRMSD -1
REMARK  0 active torsions:
REMARK  status: ('A' for Active; 'I' for Inactive)
ROOT
ATOM      1  C2' OXE d   1      -2.718  -6.000  -4.889  0.00  0.00     0.078 C 
ATOM      2  C1' OXE d   1      -2.974  -4.141  -2.801  0.00  0.00     0.078 C 
ATOM      3  C1  OXE d   1      -4.008  -4.113  -3.898  0.00  0.00    -0.078 A 
ATOM      4  C2  OXE d   1      -3.849  -4.995  -4.940  0.00  0.00    -0.078 A 
ATOM      5  C3  OXE d   1      -4.804  -5.048  -5.950  0.00  0.00     0.003 A 
ATOM      6  C4  OXE d   1      -5.841  -4.109  -5.996  0.00  0.00    -0.002 A 
ATOM      7  C5  OXE d   1      -5.999  -3.176  -4.965  0.00  0.00    -0.002 A 
ATOM      8  C6  OXE d   1      -5.118  -3.192  -3.890  0.00  0.00     0.003 A 
ENDROOT
TORSDOF 0
ENDMDL
