MODEL 1
REMARK minimizedAffinity -3.62454009
REMARK minimizedRMSD -1
REMARK  0 active torsions:
REMARK  status: ('A' for Active; 'I' for Inactive)
ROOT
ATOM      1  C2' OXE d   1      -3.573  -5.999  -3.719  0.00  0.00     0.078 C 
ATOM      2  C1' OXE d   1      -1.775  -4.418  -5.184  0.00  0.00     0.078 C 
ATOM      3  C1  OXE d   1      -3.186  -3.911  -5.022  0.00  0.00    -0.078 A 
ATOM      4  C2  OXE d   1      -4.072  -4.713  -4.343  0.00  0.00    -0.078 A 
ATOM      5  C3  OXE d   1      -5.371  -4.269  -4.118  0.00  0.00     0.003 A 
ATOM      6  C4  OXE d   1      -5.827  -3.083  -4.707  0.00  0.00    -0.002 A 
ATOM      7  C5  OXE d   1      -4.952  -2.270  -5.436  0.00  0.00    -0.002 A 
ATOM      8  C6  OXE d   1      -3.620  -2.648  -5.566  0.00  0.00     0.003 A 
ENDROOT
TORSDOF 0
ENDMDL
