MODEL 1
REMARK minimizedAffinity 2.290663
REMARK minimizedRMSD -1
REMARK  0 active torsions:
REMARK  status: ('A' for Active; 'I' for Inactive)
ROOT
ATOM      1  C2' OXE d   1      -2.537  -3.116  -2.645  0.00  0.00     0.078 C 
ATOM      2  C1' OXE d   1      -4.225  -2.736  -4.855  0.00  0.00     0.078 C 
ATOM      3  C1  OXE d   1      -3.269  -3.902  -4.892  0.00  0.00    -0.078 A 
ATOM      4  C2  OXE d   1      -2.414  -4.053  -3.827  0.00  0.00    -0.078 A 
ATOM      5  C3  OXE d   1      -1.550  -5.144  -3.785  0.00  0.00     0.003 A 
ATOM      6  C4  OXE d   1      -1.436  -6.000  -4.887  0.00  0.00    -0.002 A 
ATOM      7  C5  OXE d   1      -2.270  -5.840  -6.000  0.00  0.00    -0.002 A 
ATOM      8  C6  OXE d   1      -3.219  -4.824  -6.000  0.00  0.00     0.003 A 
ENDROOT
TORSDOF 0
ENDMDL
