MODEL 1
REMARK minimizedAffinity 0.360041827
REMARK minimizedRMSD -1
REMARK  0 active torsions:
REMARK  status: ('A' for Active; 'I' for Inactive)
ROOT
ATOM      1  C2' OXE d   1      -4.479  -5.287  -5.978  0.00  0.00     0.078 C 
ATOM      2  C1' OXE d   1      -3.963  -3.700  -3.720  0.00  0.00     0.078 C 
ATOM      3  C1  OXE d   1      -2.814  -4.480  -4.309  0.00  0.00    -0.078 A 
ATOM      4  C2  OXE d   1      -3.086  -5.290  -5.385  0.00  0.00    -0.078 A 
ATOM      5  C3  OXE d   1      -2.052  -5.990  -6.000  0.00  0.00     0.003 A 
ATOM      6  C4  OXE d   1      -0.769  -5.996  -5.439  0.00  0.00    -0.002 A 
ATOM      7  C5  OXE d   1      -0.480  -5.209  -4.320  0.00  0.00    -0.002 A 
ATOM      8  C6  OXE d   1      -1.479  -4.414  -3.769  0.00  0.00     0.003 A 
ENDROOT
TORSDOF 0
ENDMDL
