MODEL 1
REMARK minimizedAffinity -3.45956349
REMARK minimizedRMSD -1
REMARK  0 active torsions:
REMARK  status: ('A' for Active; 'I' for Inactive)
ROOT
ATOM      1  C2' OXE d   1      -4.924  -2.626  -6.000  0.00  0.00     0.078 C 
ATOM      2  C1' OXE d   1      -5.889  -4.495  -4.140  0.00  0.00     0.078 C 
ATOM      3  C1  OXE d   1      -4.466  -4.648  -4.618  0.00  0.00    -0.078 A 
ATOM      4  C2  OXE d   1      -4.018  -3.757  -5.563  0.00  0.00    -0.078 A 
ATOM      5  C3  OXE d   1      -2.697  -3.820  -5.998  0.00  0.00     0.003 A 
ATOM      6  C4  OXE d   1      -1.868  -4.875  -5.597  0.00  0.00    -0.002 A 
ATOM      7  C5  OXE d   1      -2.318  -5.816  -4.665  0.00  0.00    -0.002 A 
ATOM      8  C6  OXE d   1      -3.598  -5.692  -4.135  0.00  0.00     0.003 A 
ENDROOT
TORSDOF 0
ENDMDL
