MODEL 1
REMARK minimizedAffinity -2.20230913
REMARK minimizedRMSD -1
REMARK  0 active torsions:
REMARK  status: ('A' for Active; 'I' for Inactive)
ROOT
ATOM      1  C2' OXE d   1      -2.303  -4.971  -5.646  0.00  0.00     0.078 C 
ATOM      2  C1' OXE d   1      -2.312  -4.022  -3.004  0.00  0.00     0.078 C 
ATOM      3  C1  OXE d   1      -3.507  -3.707  -3.869  0.00  0.00    -0.078 A 
ATOM      4  C2  OXE d   1      -3.473  -4.135  -5.174  0.00  0.00    -0.078 A 
ATOM      5  C3  OXE d   1      -4.573  -3.919  -6.000  0.00  0.00     0.003 A 
ATOM      6  C4  OXE d   1      -5.647  -3.136  -5.559  0.00  0.00    -0.002 A 
ATOM      7  C5  OXE d   1      -5.683  -2.656  -4.245  0.00  0.00    -0.002 A 
ATOM      8  C6  OXE d   1      -4.643  -2.968  -3.377  0.00  0.00     0.003 A 
ENDROOT
TORSDOF 0
ENDMDL
