MODEL 1
REMARK minimizedAffinity -2.37720513
REMARK minimizedRMSD -1
REMARK  0 active torsions:
REMARK  status: ('A' for Active; 'I' for Inactive)
ROOT
ATOM      1  C2' OXE d   1      -5.544  -3.350  -4.169  0.00  0.00     0.078 C 
ATOM      2  C1' OXE d   1      -5.999  -5.429  -5.999  0.00  0.00     0.078 C 
ATOM      3  C1  OXE d   1      -4.581  -5.188  -5.546  0.00  0.00    -0.078 A 
ATOM      4  C2  OXE d   1      -4.361  -4.139  -4.687  0.00  0.00    -0.078 A 
ATOM      5  C3  OXE d   1      -3.080  -3.907  -4.195  0.00  0.00     0.003 A 
ATOM      6  C4  OXE d   1      -1.989  -4.635  -4.687  0.00  0.00    -0.002 A 
ATOM      7  C5  OXE d   1      -2.186  -5.683  -5.593  0.00  0.00    -0.002 A 
ATOM      8  C6  OXE d   1      -3.477  -5.999  -5.999  0.00  0.00     0.003 A 
ENDROOT
TORSDOF 0
ENDMDL
