MODEL 1
REMARK minimizedAffinity -0.597536922
REMARK minimizedRMSD -1
REMARK  0 active torsions:
REMARK  status: ('A' for Active; 'I' for Inactive)
ROOT
ATOM      1  C2' OXE d   1      -4.934  -3.443  -3.873  0.00  0.00     0.078 C 
ATOM      2  C1' OXE d   1      -5.506  -5.231  -5.961  0.00  0.00     0.078 C 
ATOM      3  C1  OXE d   1      -4.085  -5.165  -5.460  0.00  0.00    -0.078 A 
ATOM      4  C2  OXE d   1      -3.804  -4.254  -4.470  0.00  0.00    -0.078 A 
ATOM      5  C3  OXE d   1      -2.521  -4.191  -3.935  0.00  0.00     0.003 A 
ATOM      6  C4  OXE d   1      -1.480  -4.938  -4.500  0.00  0.00    -0.002 A 
ATOM      7  C5  OXE d   1      -1.736  -5.843  -5.535  0.00  0.00    -0.002 A 
ATOM      8  C6  OXE d   1      -3.038  -5.999  -5.997  0.00  0.00     0.003 A 
ENDROOT
TORSDOF 0
ENDMDL
