MODEL 1
REMARK minimizedAffinity 6.18146038
REMARK minimizedRMSD -1
REMARK  0 active torsions:
REMARK  status: ('A' for Active; 'I' for Inactive)
ROOT
ATOM      1  C2' OXE d   1      -3.525  -6.000  -5.859  0.00  0.00     0.078 C 
ATOM      2  C1' OXE d   1      -1.768  -3.815  -5.999  0.00  0.00     0.078 C 
ATOM      3  C1  OXE d   1      -3.248  -3.526  -5.961  0.00  0.00    -0.078 A 
ATOM      4  C2  OXE d   1      -4.102  -4.603  -5.940  0.00  0.00    -0.078 A 
ATOM      5  C3  OXE d   1      -5.474  -4.392  -5.849  0.00  0.00     0.003 A 
ATOM      6  C4  OXE d   1      -6.000  -3.097  -5.935  0.00  0.00    -0.002 A 
ATOM      7  C5  OXE d   1      -5.149  -1.988  -5.997  0.00  0.00    -0.002 A 
ATOM      8  C6  OXE d   1      -3.773  -2.183  -5.968  0.00  0.00     0.003 A 
ENDROOT
TORSDOF 0
ENDMDL
