MODEL 1
REMARK minimizedAffinity -2.07237053
REMARK minimizedRMSD -1
REMARK  0 active torsions:
REMARK  status: ('A' for Active; 'I' for Inactive)
ROOT
ATOM      1  C2' OXE d   1      -3.051  -4.052  -2.781  0.00  0.00     0.078 C 
ATOM      2  C1' OXE d   1      -2.938  -6.000  -4.799  0.00  0.00     0.078 C 
ATOM      3  C1  OXE d   1      -4.016  -4.949  -4.895  0.00  0.00    -0.078 A 
ATOM      4  C2  OXE d   1      -4.093  -4.027  -3.879  0.00  0.00    -0.078 A 
ATOM      5  C3  OXE d   1      -5.033  -3.004  -3.946  0.00  0.00     0.003 A 
ATOM      6  C4  OXE d   1      -6.000  -2.994  -4.959  0.00  0.00    -0.002 A 
ATOM      7  C5  OXE d   1      -5.964  -3.947  -5.983  0.00  0.00    -0.002 A 
ATOM      8  C6  OXE d   1      -4.955  -4.904  -5.988  0.00  0.00     0.003 A 
ENDROOT
TORSDOF 0
ENDMDL
