MODEL 1
REMARK minimizedAffinity 2.05894852
REMARK minimizedRMSD -1
REMARK  0 active torsions:
REMARK  status: ('A' for Active; 'I' for Inactive)
ROOT
ATOM      1  C2' OXE d   1      -3.375  -3.346  -2.534  0.00  0.00     0.078 C 
ATOM      2  C1' OXE d   1      -4.986  -3.004  -4.807  0.00  0.00     0.078 C 
ATOM      3  C1  OXE d   1      -3.925  -4.074  -4.852  0.00  0.00    -0.078 A 
ATOM      4  C2  OXE d   1      -3.110  -4.203  -3.753  0.00  0.00    -0.078 A 
ATOM      5  C3  OXE d   1      -2.151  -5.212  -3.720  0.00  0.00     0.003 A 
ATOM      6  C4  OXE d   1      -1.906  -5.994  -4.855  0.00  0.00    -0.002 A 
ATOM      7  C5  OXE d   1      -2.698  -5.852  -6.000  0.00  0.00    -0.002 A 
ATOM      8  C6  OXE d   1      -3.737  -4.928  -5.999  0.00  0.00     0.003 A 
ENDROOT
TORSDOF 0
ENDMDL
