MODEL 1
REMARK minimizedAffinity 3.42090893
REMARK minimizedRMSD -1
REMARK  0 active torsions:
REMARK  status: ('A' for Active; 'I' for Inactive)
ROOT
ATOM      1  C2' OXE d   1      -3.140  -4.885  -5.908  0.00  0.00     0.078 C 
ATOM      2  C1' OXE d   1      -2.987  -4.475  -3.135  0.00  0.00     0.078 C 
ATOM      3  C1  OXE d   1      -4.068  -3.748  -3.895  0.00  0.00    -0.078 A 
ATOM      4  C2  OXE d   1      -4.106  -3.918  -5.258  0.00  0.00    -0.078 A 
ATOM      5  C3  OXE d   1      -5.116  -3.313  -6.000  0.00  0.00     0.003 A 
ATOM      6  C4  OXE d   1      -5.999  -2.412  -5.393  0.00  0.00    -0.002 A 
ATOM      7  C5  OXE d   1      -5.953  -2.194  -4.012  0.00  0.00    -0.002 A 
ATOM      8  C6  OXE d   1      -5.022  -2.885  -3.244  0.00  0.00     0.003 A 
ENDROOT
TORSDOF 0
ENDMDL
