MODEL 1
REMARK minimizedAffinity 2.28678465
REMARK minimizedRMSD -1
REMARK  0 active torsions:
REMARK  status: ('A' for Active; 'I' for Inactive)
ROOT
ATOM      1  C   UNL d   1       0.333  -3.575  -3.202  0.00  0.00     0.020 A 
ATOM      2  C1  UNL d   1       0.933  -3.332  -4.437  0.00  0.00     0.020 A 
ATOM      3  C2  UNL d   1       2.317  -3.460  -4.578  0.00  0.00     0.034 A 
ATOM      4  C3  UNL d   1       3.104  -3.832  -3.482  0.00  0.00     0.017 A 
ATOM      5  C4  UNL d   1       2.500  -4.076  -2.243  0.00  0.00     0.017 A 
ATOM      6  C5  UNL d   1       1.115  -3.947  -2.108  0.00  0.00     0.034 A 
ATOM      7 Cl   UNL d   1       3.406  -4.540  -0.846  0.00  0.00    -0.070 Cl
ATOM      8 Cl1  UNL d   1       4.809  -3.971  -3.728  0.00  0.00    -0.070 Cl
ENDROOT
TORSDOF 0
ENDMDL
