MODEL 1
REMARK minimizedAffinity 7.32247829
REMARK minimizedRMSD -1
REMARK  0 active torsions:
REMARK  status: ('A' for Active; 'I' for Inactive)
ROOT
ATOM      1  C   UNL d   1      -0.064   0.965   0.603  0.00  0.00     0.020 A 
ATOM      2  C1  UNL d   1       1.063   0.614  -0.138  0.00  0.00     0.020 A 
ATOM      3  C2  UNL d   1       1.031   0.684  -1.532  0.00  0.00     0.034 A 
ATOM      4  C3  UNL d   1      -0.130   1.106  -2.190  0.00  0.00     0.017 A 
ATOM      5  C4  UNL d   1      -1.261   1.458  -1.445  0.00  0.00     0.017 A 
ATOM      6  C5  UNL d   1      -1.224   1.386  -0.049  0.00  0.00     0.034 A 
ATOM      7 Cl   UNL d   1      -2.731   1.988  -2.185  0.00  0.00    -0.070 Cl
ATOM      8 Cl1  UNL d   1      -0.098   1.169  -3.916  0.00  0.00    -0.070 Cl
ENDROOT
TORSDOF 0
ENDMDL
