MODEL 1
REMARK minimizedAffinity 4.67273998
REMARK minimizedRMSD -1
REMARK  0 active torsions:
REMARK  status: ('A' for Active; 'I' for Inactive)
ROOT
ATOM      1  C   UNL d   1       0.562   0.027  -1.622  0.00  0.00     0.020 A 
ATOM      2  C1  UNL d   1       0.409   1.399  -1.816  0.00  0.00     0.020 A 
ATOM      3  C2  UNL d   1       0.224   2.243  -0.719  0.00  0.00     0.034 A 
ATOM      4  C3  UNL d   1       0.192   1.716   0.577  0.00  0.00     0.017 A 
ATOM      5  C4  UNL d   1       0.347   0.338   0.771  0.00  0.00     0.017 A 
ATOM      6  C5  UNL d   1       0.531  -0.502  -0.331  0.00  0.00     0.034 A 
ATOM      7 Cl   UNL d   1       0.319  -0.386   2.340  0.00  0.00    -0.070 Cl
ATOM      8 Cl1  UNL d   1      -0.039   2.818   1.888  0.00  0.00    -0.070 Cl
ENDROOT
TORSDOF 0
ENDMDL
