MODEL 1
REMARK minimizedAffinity 0.663963199
REMARK minimizedRMSD -1
REMARK  0 active torsions:
REMARK  status: ('A' for Active; 'I' for Inactive)
ROOT
ATOM      1  C   UNL d   1       0.492   3.990   4.722  0.00  0.00     0.020 A 
ATOM      2  C1  UNL d   1       0.043   2.699   4.998  0.00  0.00     0.020 A 
ATOM      3  C2  UNL d   1      -0.032   1.752   3.974  0.00  0.00     0.034 A 
ATOM      4  C3  UNL d   1       0.342   2.094   2.669  0.00  0.00     0.017 A 
ATOM      5  C4  UNL d   1       0.792   3.391   2.393  0.00  0.00     0.017 A 
ATOM      6  C5  UNL d   1       0.865   4.335   3.422  0.00  0.00     0.034 A 
ATOM      7 Cl   UNL d   1       1.270   3.888   0.809  0.00  0.00    -0.070 Cl
ATOM      8 Cl1  UNL d   1       0.223   0.873   1.453  0.00  0.00    -0.070 Cl
ENDROOT
TORSDOF 0
ENDMDL
