MODEL 1
REMARK minimizedAffinity 3.85875773
REMARK minimizedRMSD -1
REMARK  0 active torsions:
REMARK  status: ('A' for Active; 'I' for Inactive)
ROOT
ATOM      1  C   UNL d   1      -5.958   2.625  -5.665  0.00  0.00     0.020 A 
ATOM      2  C1  UNL d   1      -6.000   3.542  -4.616  0.00  0.00     0.020 A 
ATOM      3  C2  UNL d   1      -5.356   3.253  -3.410  0.00  0.00     0.034 A 
ATOM      4  C3  UNL d   1      -4.668   2.045  -3.251  0.00  0.00     0.017 A 
ATOM      5  C4  UNL d   1      -4.627   1.125  -4.305  0.00  0.00     0.017 A 
ATOM      6  C5  UNL d   1      -5.273   1.419  -5.510  0.00  0.00     0.034 A 
ATOM      7 Cl   UNL d   1      -3.798  -0.387  -4.184  0.00  0.00    -0.070 Cl
ATOM      8 Cl1  UNL d   1      -3.895   1.754  -1.734  0.00  0.00    -0.070 Cl
ENDROOT
TORSDOF 0
ENDMDL
