MODEL 1
REMARK minimizedAffinity 2.87330484
REMARK minimizedRMSD -1
REMARK  0 active torsions:
REMARK  status: ('A' for Active; 'I' for Inactive)
ROOT
ATOM      1  C   UNL d   1      -0.169   2.042   2.201  0.00  0.00     0.020 A 
ATOM      2  C1  UNL d   1       0.345   1.837   0.921  0.00  0.00     0.020 A 
ATOM      3  C2  UNL d   1       0.775   2.926   0.160  0.00  0.00     0.034 A 
ATOM      4  C3  UNL d   1       0.692   4.224   0.677  0.00  0.00     0.017 A 
ATOM      5  C4  UNL d   1       0.175   4.428   1.961  0.00  0.00     0.017 A 
ATOM      6  C5  UNL d   1      -0.254   3.334   2.720  0.00  0.00     0.034 A 
ATOM      7 Cl   UNL d   1       0.040   6.000   2.667  0.00  0.00    -0.070 Cl
ATOM      8 Cl1  UNL d   1       1.242   5.523  -0.320  0.00  0.00    -0.070 Cl
ENDROOT
TORSDOF 0
ENDMDL
