MODEL 1
REMARK minimizedAffinity 10.1366358
REMARK minimizedRMSD -1
REMARK  0 active torsions:
REMARK  status: ('A' for Active; 'I' for Inactive)
ROOT
ATOM      1  C   UNL d   1       0.766   4.060   3.585  0.00  0.00     0.020 A 
ATOM      2  C1  UNL d   1       1.005   2.993   4.450  0.00  0.00     0.020 A 
ATOM      3  C2  UNL d   1       0.802   1.682   4.015  0.00  0.00     0.034 A 
ATOM      4  C3  UNL d   1       0.359   1.434   2.710  0.00  0.00     0.017 A 
ATOM      5  C4  UNL d   1       0.119   2.506   1.842  0.00  0.00     0.017 A 
ATOM      6  C5  UNL d   1       0.324   3.817   2.284  0.00  0.00     0.034 A 
ATOM      7 Cl   UNL d   1      -0.429   2.279   0.219  0.00  0.00    -0.070 Cl
ATOM      8 Cl1  UNL d   1       0.130  -0.212   2.239  0.00  0.00    -0.070 Cl
ENDROOT
TORSDOF 0
ENDMDL
