MODEL 1
REMARK minimizedAffinity 5.24189043
REMARK minimizedRMSD -1
REMARK  0 active torsions:
REMARK  status: ('A' for Active; 'I' for Inactive)
ROOT
ATOM      1  C   UNL d   1      -6.000   2.993  -5.260  0.00  0.00     0.020 A 
ATOM      2  C1  UNL d   1      -5.855   4.166  -6.000  0.00  0.00     0.020 A 
ATOM      3  C2  UNL d   1      -4.638   4.851  -5.989  0.00  0.00     0.034 A 
ATOM      4  C3  UNL d   1      -3.562   4.365  -5.238  0.00  0.00     0.017 A 
ATOM      5  C4  UNL d   1      -3.709   3.188  -4.495  0.00  0.00     0.017 A 
ATOM      6  C5  UNL d   1      -4.930   2.505  -4.510  0.00  0.00     0.034 A 
ATOM      7 Cl   UNL d   1      -2.427   2.526  -3.544  0.00  0.00    -0.070 Cl
ATOM      8 Cl1  UNL d   1      -2.087   5.264  -5.271  0.00  0.00    -0.070 Cl
ENDROOT
TORSDOF 0
ENDMDL
