MODEL 1
REMARK minimizedAffinity 0.827424288
REMARK minimizedRMSD -1
REMARK  0 active torsions:
REMARK  status: ('A' for Active; 'I' for Inactive)
ROOT
ATOM      1  C   UNL d   1      -6.000   4.331  -5.017  0.00  0.00     0.020 A 
ATOM      2  C1  UNL d   1      -5.914   3.343  -5.997  0.00  0.00     0.020 A 
ATOM      3  C2  UNL d   1      -5.451   2.068  -5.664  0.00  0.00     0.034 A 
ATOM      4  C3  UNL d   1      -5.072   1.778  -4.349  0.00  0.00     0.017 A 
ATOM      5  C4  UNL d   1      -5.159   2.770  -3.366  0.00  0.00     0.017 A 
ATOM      6  C5  UNL d   1      -5.623   4.045  -3.704  0.00  0.00     0.034 A 
ATOM      7 Cl   UNL d   1      -4.710   2.487  -1.721  0.00  0.00    -0.070 Cl
ATOM      8 Cl1  UNL d   1      -4.509   0.180  -4.009  0.00  0.00    -0.070 Cl
ENDROOT
TORSDOF 0
ENDMDL
