MODEL 1
REMARK minimizedAffinity 6.37068605
REMARK minimizedRMSD -1
REMARK  0 active torsions:
REMARK  status: ('A' for Active; 'I' for Inactive)
ROOT
ATOM      1  C   UNL d   1      -4.564   0.095  -4.088  0.00  0.00     0.020 A 
ATOM      2  C1  UNL d   1      -5.686   0.386  -4.863  0.00  0.00     0.020 A 
ATOM      3  C2  UNL d   1      -6.000   1.712  -5.168  0.00  0.00     0.034 A 
ATOM      4  C3  UNL d   1      -5.190   2.753  -4.698  0.00  0.00     0.017 A 
ATOM      5  C4  UNL d   1      -4.064   2.460  -3.920  0.00  0.00     0.017 A 
ATOM      6  C5  UNL d   1      -3.755   1.131  -3.617  0.00  0.00     0.034 A 
ATOM      7 Cl   UNL d   1      -3.018   3.690  -3.304  0.00  0.00    -0.070 Cl
ATOM      8 Cl1  UNL d   1      -5.638   4.369  -5.114  0.00  0.00    -0.070 Cl
ENDROOT
TORSDOF 0
ENDMDL
