MODEL 1
REMARK minimizedAffinity 3.75611615
REMARK minimizedRMSD -1
REMARK  0 active torsions:
REMARK  status: ('A' for Active; 'I' for Inactive)
ROOT
ATOM      1  C   UNL d   1       0.171   2.336  -1.791  0.00  0.00     0.020 A 
ATOM      2  C1  UNL d   1      -1.159   1.930  -1.899  0.00  0.00     0.020 A 
ATOM      3  C2  UNL d   1      -1.578   0.742  -1.296  0.00  0.00     0.034 A 
ATOM      4  C3  UNL d   1      -0.666  -0.044  -0.582  0.00  0.00     0.017 A 
ATOM      5  C4  UNL d   1       0.668   0.364  -0.474  0.00  0.00     0.017 A 
ATOM      6  C5  UNL d   1       1.082   1.554  -1.080  0.00  0.00     0.034 A 
ATOM      7 Cl   UNL d   1       1.851  -0.553   0.391  0.00  0.00    -0.070 Cl
ATOM      8 Cl1  UNL d   1      -1.254  -1.501   0.138  0.00  0.00    -0.070 Cl
ENDROOT
TORSDOF 0
ENDMDL
