MODEL 1
REMARK minimizedAffinity -2.82582569
REMARK minimizedRMSD -1
REMARK  0 active torsions:
REMARK  status: ('A' for Active; 'I' for Inactive)
ROOT
ATOM      1  C   UNL d   1      -6.000   3.816  -4.545  0.00  0.00     0.020 A 
ATOM      2  C1  UNL d   1      -5.874   2.990  -5.662  0.00  0.00     0.020 A 
ATOM      3  C2  UNL d   1      -5.338   1.708  -5.525  0.00  0.00     0.034 A 
ATOM      4  C3  UNL d   1      -4.927   1.247  -4.269  0.00  0.00     0.017 A 
ATOM      5  C4  UNL d   1      -5.054   2.076  -3.149  0.00  0.00     0.017 A 
ATOM      6  C5  UNL d   1      -5.591   3.359  -3.291  0.00  0.00     0.034 A 
ATOM      7 Cl   UNL d   1      -4.569   1.577  -1.567  0.00  0.00    -0.070 Cl
ATOM      8 Cl1  UNL d   1      -4.274  -0.350  -4.174  0.00  0.00    -0.070 Cl
ENDROOT
TORSDOF 0
ENDMDL
