MODEL 1
REMARK minimizedAffinity 0.367105395
REMARK minimizedRMSD -1
REMARK  0 active torsions:
REMARK  status: ('A' for Active; 'I' for Inactive)
ROOT
ATOM      1  C   UNL d   1       0.680   4.777   1.074  0.00  0.00     0.020 A 
ATOM      2  C1  UNL d   1       0.289   4.082   2.218  0.00  0.00     0.020 A 
ATOM      3  C2  UNL d   1       0.068   2.705   2.157  0.00  0.00     0.034 A 
ATOM      4  C3  UNL d   1       0.237   2.017   0.950  0.00  0.00     0.017 A 
ATOM      5  C4  UNL d   1       0.630   2.715  -0.198  0.00  0.00     0.017 A 
ATOM      6  C5  UNL d   1       0.851   4.094  -0.131  0.00  0.00     0.034 A 
ATOM      7 Cl   UNL d   1       0.860   1.936  -1.723  0.00  0.00    -0.070 Cl
ATOM      8 Cl1  UNL d   1      -0.053   0.314   0.948  0.00  0.00    -0.070 Cl
ENDROOT
TORSDOF 0
ENDMDL
