MODEL 1
REMARK minimizedAffinity -2.45371246
REMARK minimizedRMSD -1
REMARK  0 active torsions:
REMARK  status: ('A' for Active; 'I' for Inactive)
ROOT
ATOM      1  C   UNL d   1      -5.899   3.833  -1.472  0.00  0.00     0.020 A 
ATOM      2  C1  UNL d   1      -5.322   2.611  -1.126  0.00  0.00     0.020 A 
ATOM      3  C2  UNL d   1      -4.662   1.852  -2.095  0.00  0.00     0.034 A 
ATOM      4  C3  UNL d   1      -4.577   2.313  -3.414  0.00  0.00     0.017 A 
ATOM      5  C4  UNL d   1      -5.156   3.540  -3.759  0.00  0.00     0.017 A 
ATOM      6  C5  UNL d   1      -5.816   4.296  -2.785  0.00  0.00     0.034 A 
ATOM      7 Cl   UNL d   1      -5.093   4.175  -5.365  0.00  0.00    -0.070 Cl
ATOM      8 Cl1  UNL d   1      -3.746   1.323  -4.560  0.00  0.00    -0.070 Cl
ENDROOT
TORSDOF 0
ENDMDL
