MODEL 1
REMARK minimizedAffinity 1.1778394
REMARK minimizedRMSD -1
REMARK  0 active torsions:
REMARK  status: ('A' for Active; 'I' for Inactive)
ROOT
ATOM      1  C   UNL d   1      -5.998   4.297  -4.862  0.00  0.00     0.020 A 
ATOM      2  C1  UNL d   1      -5.999   3.491  -6.000  0.00  0.00     0.020 A 
ATOM      3  C2  UNL d   1      -5.311   2.276  -5.996  0.00  0.00     0.034 A 
ATOM      4  C3  UNL d   1      -4.618   1.863  -4.852  0.00  0.00     0.017 A 
ATOM      5  C4  UNL d   1      -4.617   2.673  -3.710  0.00  0.00     0.017 A 
ATOM      6  C5  UNL d   1      -5.308   3.888  -3.720  0.00  0.00     0.034 A 
ATOM      7 Cl   UNL d   1      -3.785   2.230  -2.262  0.00  0.00    -0.070 Cl
ATOM      8 Cl1  UNL d   1      -3.789   0.349  -4.918  0.00  0.00    -0.070 Cl
ENDROOT
TORSDOF 0
ENDMDL
