MODEL 1
REMARK minimizedAffinity 1.22260189
REMARK minimizedRMSD -1
REMARK  0 active torsions:
REMARK  status: ('A' for Active; 'I' for Inactive)
ROOT
ATOM      1  C   UNL d   1      -5.265   5.548  -5.199  0.00  0.00     0.020 A 
ATOM      2  C1  UNL d   1      -6.000   4.675  -6.000  0.00  0.00     0.020 A 
ATOM      3  C2  UNL d   1      -5.813   3.296  -5.883  0.00  0.00     0.034 A 
ATOM      4  C3  UNL d   1      -4.889   2.786  -4.964  0.00  0.00     0.017 A 
ATOM      5  C4  UNL d   1      -4.152   3.663  -4.160  0.00  0.00     0.017 A 
ATOM      6  C5  UNL d   1      -4.343   5.043  -4.281  0.00  0.00     0.034 A 
ATOM      7 Cl   UNL d   1      -2.994   3.109  -3.003  0.00  0.00    -0.070 Cl
ATOM      8 Cl1  UNL d   1      -4.710   1.070  -4.873  0.00  0.00    -0.070 Cl
ENDROOT
TORSDOF 0
ENDMDL
