MODEL 1
REMARK minimizedAffinity -0.88859266
REMARK minimizedRMSD -1
REMARK  0 active torsions:
REMARK  status: ('A' for Active; 'I' for Inactive)
ROOT
ATOM      1  C   UNL d   1      -6.000   2.601  -6.000  0.00  0.00     0.020 A 
ATOM      2  C1  UNL d   1      -5.725   3.583  -5.049  0.00  0.00     0.020 A 
ATOM      3  C2  UNL d   1      -4.953   3.273  -3.928  0.00  0.00     0.034 A 
ATOM      4  C3  UNL d   1      -4.453   1.977  -3.754  0.00  0.00     0.017 A 
ATOM      5  C4  UNL d   1      -4.729   0.992  -4.709  0.00  0.00     0.017 A 
ATOM      6  C5  UNL d   1      -5.502   1.308  -5.830  0.00  0.00     0.034 A 
ATOM      7 Cl   UNL d   1      -4.146  -0.629  -4.564  0.00  0.00    -0.070 Cl
ATOM      8 Cl1  UNL d   1      -3.505   1.664  -2.344  0.00  0.00    -0.070 Cl
ENDROOT
TORSDOF 0
ENDMDL
