MODEL 1
REMARK minimizedAffinity 4.57619238
REMARK minimizedRMSD -1
REMARK  0 active torsions:
REMARK  status: ('A' for Active; 'I' for Inactive)
ROOT
ATOM      1  C   UNL d   1      -4.446   5.264  -5.318  0.00  0.00     0.020 A 
ATOM      2  C1  UNL d   1      -5.642   5.887  -4.965  0.00  0.00     0.020 A 
ATOM      3  C2  UNL d   1      -6.000   6.000  -3.620  0.00  0.00     0.034 A 
ATOM      4  C3  UNL d   1      -5.160   5.490  -2.623  0.00  0.00     0.017 A 
ATOM      5  C4  UNL d   1      -3.959   4.865  -2.978  0.00  0.00     0.017 A 
ATOM      6  C5  UNL d   1      -3.606   4.755  -4.327  0.00  0.00     0.034 A 
ATOM      7 Cl   UNL d   1      -2.872   4.211  -1.805  0.00  0.00    -0.070 Cl
ATOM      8 Cl1  UNL d   1      -5.666   5.665  -0.980  0.00  0.00    -0.070 Cl
ENDROOT
TORSDOF 0
ENDMDL
