MODEL 1
REMARK minimizedAffinity 8.91652584
REMARK minimizedRMSD -1
REMARK  1 active torsions:
REMARK  status: ('A' for Active; 'I' for Inactive)
REMARK    1  A    between atoms: C1_2  and  C2_3 
ROOT
ATOM      1  C2  UNL d   1      -4.758  -2.304  -2.685  0.00  0.00    -0.073 A 
ATOM      2  C3  UNL d   1      -4.292  -1.125  -3.278  0.00  0.00    -0.002 A 
ATOM      3  C4  UNL d   1      -4.369  -0.953  -4.661  0.00  0.00     0.004 A 
ATOM      4  C5  UNL d   1      -4.917  -1.954  -5.463  0.00  0.00    -0.004 A 
ATOM      5  C6  UNL d   1      -5.399  -3.134  -4.888  0.00  0.00    -0.075 A 
ATOM      6  C7  UNL d   1      -5.990  -4.221  -5.737  0.00  0.00     0.076 C 
ATOM      7  C8  UNL d   1      -5.316  -3.300  -3.499  0.00  0.00     0.001 A 
ENDROOT
BRANCH   1   8
ATOM      8  C1  UNL d   1      -4.683  -2.491  -1.192  0.00  0.00     0.053 C 
ATOM      9  C   UNL d   1      -3.696  -1.532  -0.546  0.00  0.00     0.018 C 
ENDBRANCH   1   8
TORSDOF 1
ENDMDL
