MODEL 1
REMARK minimizedAffinity 19.7430286
REMARK minimizedRMSD -1
REMARK  1 active torsions:
REMARK  status: ('A' for Active; 'I' for Inactive)
REMARK    1  A    between atoms: C1_2  and  C2_3 
ROOT
ATOM      1  C2  UNL d   1      -4.733  -2.277  -1.837  0.00  0.00    -0.073 A 
ATOM      2  C3  UNL d   1      -5.372  -1.448  -0.908  0.00  0.00    -0.002 A 
ATOM      3  C4  UNL d   1      -5.456  -1.825   0.433  0.00  0.00     0.004 A 
ATOM      4  C5  UNL d   1      -4.897  -3.029   0.860  0.00  0.00    -0.004 A 
ATOM      5  C6  UNL d   1      -4.245  -3.866  -0.051  0.00  0.00    -0.075 A 
ATOM      6  C7  UNL d   1      -3.640  -5.166   0.392  0.00  0.00     0.076 C 
ATOM      7  C8  UNL d   1      -4.167  -3.482  -1.397  0.00  0.00     0.001 A 
ENDROOT
BRANCH   1   8
ATOM      8  C1  UNL d   1      -4.635  -1.871  -3.285  0.00  0.00     0.053 C 
ATOM      9  C   UNL d   1      -5.999  -1.800  -3.951  0.00  0.00     0.018 C 
ENDBRANCH   1   8
TORSDOF 1
ENDMDL
