MODEL 1
REMARK minimizedAffinity 11.9286623
REMARK minimizedRMSD -1
REMARK  1 active torsions:
REMARK  status: ('A' for Active; 'I' for Inactive)
REMARK    1  A    between atoms: C1_2  and  C2_3 
ROOT
ATOM      1  C2  UNL d   1      -4.830  -2.363  -5.196  0.00  0.00    -0.073 A 
ATOM      2  C3  UNL d   1      -5.691  -2.523  -4.104  0.00  0.00    -0.002 A 
ATOM      3  C4  UNL d   1      -5.999  -3.799  -3.631  0.00  0.00     0.004 A 
ATOM      4  C5  UNL d   1      -5.446  -4.926  -4.240  0.00  0.00    -0.004 A 
ATOM      5  C6  UNL d   1      -4.575  -4.786  -5.324  0.00  0.00    -0.075 A 
ATOM      6  C7  UNL d   1      -3.974  -5.988  -5.991  0.00  0.00     0.076 C 
ATOM      7  C8  UNL d   1      -4.272  -3.501  -5.795  0.00  0.00     0.001 A 
ENDROOT
BRANCH   1   8
ATOM      8  C1  UNL d   1      -4.489  -0.986  -5.706  0.00  0.00     0.053 C 
ATOM      9  C   UNL d   1      -4.085  -0.046  -4.582  0.00  0.00     0.018 C 
ENDBRANCH   1   8
TORSDOF 1
ENDMDL
