MODEL 1
REMARK minimizedAffinity 3.07487178
REMARK minimizedRMSD -1
REMARK  1 active torsions:
REMARK  status: ('A' for Active; 'I' for Inactive)
REMARK    1  A    between atoms: C1_2  and  C2_3 
ROOT
ATOM      1  C2  UNL d   1      -4.658  -4.463   0.225  0.00  0.00    -0.073 A 
ATOM      2  C3  UNL d   1      -5.007  -3.702  -0.896  0.00  0.00    -0.002 A 
ATOM      3  C4  UNL d   1      -5.678  -2.488  -0.743  0.00  0.00     0.004 A 
ATOM      4  C5  UNL d   1      -6.000  -2.019   0.531  0.00  0.00    -0.004 A 
ATOM      5  C6  UNL d   1      -5.649  -2.760   1.664  0.00  0.00    -0.075 A 
ATOM      6  C7  UNL d   1      -5.990  -2.270   3.041  0.00  0.00     0.076 C 
ATOM      7  C8  UNL d   1      -4.978  -3.979   1.502  0.00  0.00     0.001 A 
ENDROOT
BRANCH   1   8
ATOM      8  C1  UNL d   1      -3.928  -5.771   0.066  0.00  0.00     0.053 C 
ATOM      9  C   UNL d   1      -2.917  -6.000   1.178  0.00  0.00     0.018 C 
ENDBRANCH   1   8
TORSDOF 1
ENDMDL
