MODEL 1
REMARK minimizedAffinity 3.69493842
REMARK minimizedRMSD -1
REMARK  1 active torsions:
REMARK  status: ('A' for Active; 'I' for Inactive)
REMARK    1  A    between atoms: C1_2  and  C2_3 
ROOT
ATOM      1  C2  UNL d   1      -5.619  -3.767   2.090  0.00  0.00    -0.073 A 
ATOM      2  C3  UNL d   1      -6.000  -2.707   1.260  0.00  0.00    -0.002 A 
ATOM      3  C4  UNL d   1      -5.651  -2.708  -0.091  0.00  0.00     0.004 A 
ATOM      4  C5  UNL d   1      -4.924  -3.772  -0.627  0.00  0.00    -0.004 A 
ATOM      5  C6  UNL d   1      -4.545  -4.846   0.184  0.00  0.00    -0.075 A 
ATOM      6  C7  UNL d   1      -3.762  -5.997  -0.377  0.00  0.00     0.076 C 
ATOM      7  C8  UNL d   1      -4.897  -4.836   1.540  0.00  0.00     0.001 A 
ENDROOT
BRANCH   1   8
ATOM      8  C1  UNL d   1      -6.000  -3.773   3.548  0.00  0.00     0.053 C 
ATOM      9  C   UNL d   1      -4.781  -3.721   4.455  0.00  0.00     0.018 C 
ENDBRANCH   1   8
TORSDOF 1
ENDMDL
