MODEL 1
REMARK minimizedAffinity 14.0577669
REMARK minimizedRMSD -1
REMARK  1 active torsions:
REMARK  status: ('A' for Active; 'I' for Inactive)
REMARK    1  A    between atoms: C1_2  and  C2_3 
ROOT
ATOM      1  C2  UNL d   1       3.545   1.969  -4.859  0.00  0.00    -0.073 A 
ATOM      2  C3  UNL d   1       3.179   2.432  -3.590  0.00  0.00    -0.002 A 
ATOM      3  C4  UNL d   1       2.366   1.655  -2.763  0.00  0.00     0.004 A 
ATOM      4  C5  UNL d   1       1.917   0.406  -3.194  0.00  0.00    -0.004 A 
ATOM      5  C6  UNL d   1       2.282  -0.078  -4.454  0.00  0.00    -0.075 A 
ATOM      6  C7  UNL d   1       1.806  -1.418  -4.933  0.00  0.00     0.076 C 
ATOM      7  C8  UNL d   1       3.096   0.709  -5.279  0.00  0.00     0.001 A 
ENDROOT
BRANCH   1   8
ATOM      8  C1  UNL d   1       4.428   2.802  -5.752  0.00  0.00     0.053 C 
ATOM      9  C   UNL d   1       5.495   3.546  -4.965  0.00  0.00     0.018 C 
ENDBRANCH   1   8
TORSDOF 1
ENDMDL
