MODEL 1
REMARK minimizedAffinity 15.7775764
REMARK minimizedRMSD -1
REMARK  1 active torsions:
REMARK  status: ('A' for Active; 'I' for Inactive)
REMARK    1  A    between atoms: C1_2  and  C2_3 
ROOT
ATOM      1  C2  UNL d   1       3.439   2.081  -5.163  0.00  0.00    -0.073 A 
ATOM      2  C3  UNL d   1       3.348   0.825  -5.775  0.00  0.00    -0.002 A 
ATOM      3  C4  UNL d   1       3.033  -0.305  -5.020  0.00  0.00     0.004 A 
ATOM      4  C5  UNL d   1       2.801  -0.192  -3.649  0.00  0.00    -0.004 A 
ATOM      5  C6  UNL d   1       2.876   1.056  -3.022  0.00  0.00    -0.075 A 
ATOM      6  C7  UNL d   1       2.631   1.194  -1.548  0.00  0.00     0.076 C 
ATOM      7  C8  UNL d   1       3.194   2.186  -3.786  0.00  0.00     0.001 A 
ENDROOT
BRANCH   1   8
ATOM      8  C1  UNL d   1       3.772   3.306  -5.975  0.00  0.00     0.053 C 
ATOM      9  C   UNL d   1       4.562   4.326  -5.171  0.00  0.00     0.018 C 
ENDBRANCH   1   8
TORSDOF 1
ENDMDL
