MODEL 1
REMARK minimizedAffinity 8.69860554
REMARK minimizedRMSD -1
REMARK  1 active torsions:
REMARK  status: ('A' for Active; 'I' for Inactive)
REMARK    1  A    between atoms: C1_2  and  C2_3 
ROOT
ATOM      1  C2  UNL d   1      -3.451  -4.082  -5.425  0.00  0.00    -0.073 A 
ATOM      2  C3  UNL d   1      -4.552  -4.906  -5.685  0.00  0.00    -0.002 A 
ATOM      3  C4  UNL d   1      -5.807  -4.590  -5.163  0.00  0.00     0.004 A 
ATOM      4  C5  UNL d   1      -5.976  -3.445  -4.384  0.00  0.00    -0.004 A 
ATOM      5  C6  UNL d   1      -4.890  -2.603  -4.123  0.00  0.00    -0.075 A 
ATOM      6  C7  UNL d   1      -5.054  -1.369  -3.285  0.00  0.00     0.076 C 
ATOM      7  C8  UNL d   1      -3.632  -2.929  -4.649  0.00  0.00     0.001 A 
ENDROOT
BRANCH   1   8
ATOM      8  C1  UNL d   1      -2.095  -4.416  -5.992  0.00  0.00     0.053 C 
ATOM      9  C   UNL d   1      -1.818  -5.910  -5.964  0.00  0.00     0.018 C 
ENDBRANCH   1   8
TORSDOF 1
ENDMDL
