MODEL 1
REMARK minimizedAffinity 5.91651583
REMARK minimizedRMSD -1
REMARK  1 active torsions:
REMARK  status: ('A' for Active; 'I' for Inactive)
REMARK    1  A    between atoms: C1_2  and  C2_3 
ROOT
ATOM      1  C2  UNL d   1       3.564  -5.733   2.729  0.00  0.00    -0.073 A 
ATOM      2  C3  UNL d   1       3.179  -5.990   4.050  0.00  0.00    -0.002 A 
ATOM      3  C4  UNL d   1       1.866  -5.756   4.460  0.00  0.00     0.004 A 
ATOM      4  C5  UNL d   1       0.924  -5.270   3.553  0.00  0.00    -0.004 A 
ATOM      5  C6  UNL d   1       1.286  -5.019   2.226  0.00  0.00    -0.075 A 
ATOM      6  C7  UNL d   1       0.285  -4.495   1.239  0.00  0.00     0.076 C 
ATOM      7  C8  UNL d   1       2.607  -5.254   1.822  0.00  0.00     0.001 A 
ENDROOT
BRANCH   1   8
ATOM      8  C1  UNL d   1       4.979  -5.991   2.280  0.00  0.00     0.053 C 
ATOM      9  C   UNL d   1       5.956  -5.988   3.445  0.00  0.00     0.018 C 
ENDBRANCH   1   8
TORSDOF 1
ENDMDL
