MODEL 1
REMARK minimizedAffinity 6.22586393
REMARK minimizedRMSD -1
REMARK  1 active torsions:
REMARK  status: ('A' for Active; 'I' for Inactive)
REMARK    1  A    between atoms: C1_2  and  C2_3 
ROOT
ATOM      1  C2  UNL d   1      -3.668  -1.149   0.576  0.00  0.00    -0.073 A 
ATOM      2  C3  UNL d   1      -4.634  -0.137   0.515  0.00  0.00    -0.002 A 
ATOM      3  C4  UNL d   1      -4.299   1.177   0.843  0.00  0.00     0.004 A 
ATOM      4  C5  UNL d   1      -2.996   1.494   1.227  0.00  0.00    -0.004 A 
ATOM      5  C6  UNL d   1      -2.015   0.499   1.283  0.00  0.00    -0.075 A 
ATOM      6  C7  UNL d   1      -0.609   0.824   1.697  0.00  0.00     0.076 C 
ATOM      7  C8  UNL d   1      -2.359  -0.819   0.955  0.00  0.00     0.001 A 
ENDROOT
BRANCH   1   8
ATOM      8  C1  UNL d   1      -4.024  -2.569   0.216  0.00  0.00     0.053 C 
ATOM      9  C   UNL d   1      -2.798  -3.466   0.157  0.00  0.00     0.018 C 
ENDBRANCH   1   8
TORSDOF 1
ENDMDL
