MODEL 1
REMARK minimizedAffinity 12.8464727
REMARK minimizedRMSD -1
REMARK  1 active torsions:
REMARK  status: ('A' for Active; 'I' for Inactive)
REMARK    1  A    between atoms: C1_2  and  C2_3 
ROOT
ATOM      1  C2  UNL d   1      -2.143   0.746   1.654  0.00  0.00    -0.073 A 
ATOM      2  C3  UNL d   1      -3.199   1.660   1.747  0.00  0.00    -0.002 A 
ATOM      3  C4  UNL d   1      -2.983   2.935   2.271  0.00  0.00     0.004 A 
ATOM      4  C5  UNL d   1      -1.710   3.312   2.699  0.00  0.00    -0.004 A 
ATOM      5  C6  UNL d   1      -0.640   2.417   2.603  0.00  0.00    -0.075 A 
ATOM      6  C7  UNL d   1       0.735   2.806   3.061  0.00  0.00     0.076 C 
ATOM      7  C8  UNL d   1      -0.865   1.137   2.078  0.00  0.00     0.001 A 
ENDROOT
BRANCH   1   8
ATOM      8  C1  UNL d   1      -2.370  -0.630   1.083  0.00  0.00     0.053 C 
ATOM      9  C   UNL d   1      -3.829  -0.865   0.725  0.00  0.00     0.018 C 
ENDBRANCH   1   8
TORSDOF 1
ENDMDL
