MODEL 1
REMARK minimizedAffinity 10.514082
REMARK minimizedRMSD -1
REMARK  1 active torsions:
REMARK  status: ('A' for Active; 'I' for Inactive)
REMARK    1  A    between atoms: C1_2  and  C2_3 
ROOT
ATOM      1  C2  UNL d   1      -0.427   0.742   2.537  0.00  0.00    -0.073 A 
ATOM      2  C3  UNL d   1      -0.594  -0.605   2.880  0.00  0.00    -0.002 A 
ATOM      3  C4  UNL d   1      -1.750  -1.290   2.504  0.00  0.00     0.004 A 
ATOM      4  C5  UNL d   1      -2.746  -0.640   1.776  0.00  0.00    -0.004 A 
ATOM      5  C6  UNL d   1      -2.592   0.703   1.414  0.00  0.00    -0.075 A 
ATOM      6  C7  UNL d   1      -3.656   1.418   0.633  0.00  0.00     0.076 C 
ATOM      7  C8  UNL d   1      -1.430   1.385   1.798  0.00  0.00     0.001 A 
ENDROOT
BRANCH   1   8
ATOM      8  C1  UNL d   1       0.822   1.484   2.936  0.00  0.00     0.053 C 
ATOM      9  C   UNL d   1       0.521   2.901   3.396  0.00  0.00     0.018 C 
ENDBRANCH   1   8
TORSDOF 1
ENDMDL
