MODEL 1
REMARK minimizedAffinity 1.26937044
REMARK minimizedRMSD -1
REMARK  1 active torsions:
REMARK  status: ('A' for Active; 'I' for Inactive)
REMARK    1  A    between atoms: C1_2  and  C2_3 
ROOT
ATOM      1  C2  UNL d   1      -2.511  -1.023   0.719  0.00  0.00    -0.073 A 
ATOM      2  C3  UNL d   1      -1.712  -2.074   0.255  0.00  0.00    -0.002 A 
ATOM      3  C4  UNL d   1      -2.298  -3.225  -0.272  0.00  0.00     0.004 A 
ATOM      4  C5  UNL d   1      -3.686  -3.335  -0.346  0.00  0.00    -0.004 A 
ATOM      5  C6  UNL d   1      -4.502  -2.291   0.101  0.00  0.00    -0.075 A 
ATOM      6  C7  UNL d   1      -5.997  -2.395   0.030  0.00  0.00     0.076 C 
ATOM      7  C8  UNL d   1      -3.906  -1.139   0.632  0.00  0.00     0.001 A 
ENDROOT
BRANCH   1   8
ATOM      8  C1  UNL d   1      -1.883   0.225   1.283  0.00  0.00     0.053 C 
ATOM      9  C   UNL d   1      -2.788   1.438   1.131  0.00  0.00     0.018 C 
ENDBRANCH   1   8
TORSDOF 1
ENDMDL
