MODEL 1
REMARK minimizedAffinity 13.4538422
REMARK minimizedRMSD -1
REMARK  1 active torsions:
REMARK  status: ('A' for Active; 'I' for Inactive)
REMARK    1  A    between atoms: C1_2  and  C2_3 
ROOT
ATOM      1  C2  UNL d   1       2.383   3.399  -2.249  0.00  0.00    -0.073 A 
ATOM      2  C3  UNL d   1       1.875   4.702  -2.298  0.00  0.00    -0.002 A 
ATOM      3  C4  UNL d   1       2.403   5.631  -3.195  0.00  0.00     0.004 A 
ATOM      4  C5  UNL d   1       3.438   5.266  -4.056  0.00  0.00    -0.004 A 
ATOM      5  C6  UNL d   1       3.951   3.966  -4.031  0.00  0.00    -0.075 A 
ATOM      6  C7  UNL d   1       5.065   3.558  -4.949  0.00  0.00     0.076 C 
ATOM      7  C8  UNL d   1       3.417   3.039  -3.125  0.00  0.00     0.001 A 
ENDROOT
BRANCH   1   8
ATOM      8  C1  UNL d   1       1.812   2.390  -1.286  0.00  0.00     0.053 C 
ATOM      9  C   UNL d   1       1.849   2.889   0.150  0.00  0.00     0.018 C 
ENDBRANCH   1   8
TORSDOF 1
ENDMDL
