MODEL 1
REMARK minimizedAffinity 7.5132041
REMARK minimizedRMSD -1
REMARK  0 active torsions:
REMARK  status: ('A' for Active; 'I' for Inactive)
ROOT
ATOM      1  C   UNL d   1      -1.678  -0.843   3.700  0.00  0.00     0.020 A 
ATOM      2  C1  UNL d   1      -0.317  -1.034   3.934  0.00  0.00     0.020 A 
ATOM      3  C2  UNL d   1       0.613  -0.723   2.941  0.00  0.00     0.034 A 
ATOM      4  C3  UNL d   1       0.184  -0.219   1.707  0.00  0.00     0.017 A 
ATOM      5  C4  UNL d   1      -1.182  -0.027   1.473  0.00  0.00     0.017 A 
ATOM      6  C5  UNL d   1      -2.109  -0.340   2.471  0.00  0.00     0.034 A 
ATOM      7 Cl   UNL d   1      -1.787   0.591  -0.023  0.00  0.00    -0.070 Cl
ATOM      8 Cl1  UNL d   1       1.390   0.144   0.524  0.00  0.00    -0.070 Cl
ENDROOT
TORSDOF 0
ENDMDL
