MODEL 1
REMARK minimizedAffinity 7.18172836
REMARK minimizedRMSD -1
REMARK  0 active torsions:
REMARK  status: ('A' for Active; 'I' for Inactive)
ROOT
ATOM      1  C   UNL d   1       0.046  -0.764   3.300  0.00  0.00     0.020 A 
ATOM      2  C1  UNL d   1       0.255  -0.053   2.119  0.00  0.00     0.020 A 
ATOM      3  C2  UNL d   1      -0.833   0.321   1.328  0.00  0.00     0.034 A 
ATOM      4  C3  UNL d   1      -2.135  -0.016   1.716  0.00  0.00     0.017 A 
ATOM      5  C4  UNL d   1      -2.343  -0.730   2.902  0.00  0.00     0.017 A 
ATOM      6  C5  UNL d   1      -1.250  -1.102   3.690  0.00  0.00     0.034 A 
ATOM      7 Cl   UNL d   1      -3.920  -1.182   3.447  0.00  0.00    -0.070 Cl
ATOM      8 Cl1  UNL d   1      -3.434   0.480   0.690  0.00  0.00    -0.070 Cl
ENDROOT
TORSDOF 0
ENDMDL
