MODEL 1
REMARK minimizedAffinity 14.1810894
REMARK minimizedRMSD -1
REMARK  0 active torsions:
REMARK  status: ('A' for Active; 'I' for Inactive)
ROOT
ATOM      1  C   UNL d   1      -2.615   0.785  -0.215  0.00  0.00     0.020 A 
ATOM      2  C1  UNL d   1      -3.426   0.557   0.895  0.00  0.00     0.020 A 
ATOM      3  C2  UNL d   1      -2.872   0.051   2.073  0.00  0.00     0.034 A 
ATOM      4  C3  UNL d   1      -1.503  -0.228   2.143  0.00  0.00     0.017 A 
ATOM      5  C4  UNL d   1      -0.689   0.001   1.028  0.00  0.00     0.017 A 
ATOM      6  C5  UNL d   1      -1.249   0.508  -0.149  0.00  0.00     0.034 A 
ATOM      7 Cl   UNL d   1       1.010  -0.320   1.038  0.00  0.00    -0.070 Cl
ATOM      8 Cl1  UNL d   1      -0.885  -0.852   3.631  0.00  0.00    -0.070 Cl
ENDROOT
TORSDOF 0
ENDMDL
