MODEL 1
REMARK minimizedAffinity 7.40683746
REMARK minimizedRMSD -1
REMARK  0 active torsions:
REMARK  status: ('A' for Active; 'I' for Inactive)
ROOT
ATOM      1  C   UNL d   1      -2.789   0.257   1.711  0.00  0.00     0.020 A 
ATOM      2  C1  UNL d   1      -2.234   0.496   0.454  0.00  0.00     0.020 A 
ATOM      3  C2  UNL d   1      -0.880   0.239   0.229  0.00  0.00     0.034 A 
ATOM      4  C3  UNL d   1      -0.076  -0.259   1.262  0.00  0.00     0.017 A 
ATOM      5  C4  UNL d   1      -0.635  -0.499   2.522  0.00  0.00     0.017 A 
ATOM      6  C5  UNL d   1      -1.991  -0.240   2.742  0.00  0.00     0.034 A 
ATOM      7 Cl   UNL d   1       0.292  -1.113   3.845  0.00  0.00    -0.070 Cl
ATOM      8 Cl1  UNL d   1       1.590  -0.554   0.913  0.00  0.00    -0.070 Cl
ENDROOT
TORSDOF 0
ENDMDL
