MODEL 1
REMARK minimizedAffinity -2.18422413
REMARK minimizedRMSD -1
REMARK  0 active torsions:
REMARK  status: ('A' for Active; 'I' for Inactive)
ROOT
ATOM      1  C   UNL d   1       2.600   0.075  -0.799  0.00  0.00     0.020 A 
ATOM      2  C1  UNL d   1       1.778  -0.978  -0.401  0.00  0.00     0.020 A 
ATOM      3  C2  UNL d   1       0.823  -1.490  -1.281  0.00  0.00     0.034 A 
ATOM      4  C3  UNL d   1       0.687  -0.949  -2.565  0.00  0.00     0.017 A 
ATOM      5  C4  UNL d   1       1.513   0.109  -2.964  0.00  0.00     0.017 A 
ATOM      6  C5  UNL d   1       2.468   0.617  -2.078  0.00  0.00     0.034 A 
ATOM      7 Cl   UNL d   1       1.405   0.828  -4.532  0.00  0.00    -0.070 Cl
ATOM      8 Cl1  UNL d   1      -0.515  -1.631  -3.602  0.00  0.00    -0.070 Cl
ENDROOT
TORSDOF 0
ENDMDL
