MODEL 1
REMARK minimizedAffinity 7.75350285
REMARK minimizedRMSD -1
REMARK  0 active torsions:
REMARK  status: ('A' for Active; 'I' for Inactive)
ROOT
ATOM      1  C   UNL d   1       0.701  -0.532   2.635  0.00  0.00     0.020 A 
ATOM      2  C1  UNL d   1       0.232  -1.161   3.787  0.00  0.00     0.020 A 
ATOM      3  C2  UNL d   1      -1.140  -1.346   3.972  0.00  0.00     0.034 A 
ATOM      4  C3  UNL d   1      -2.047  -0.900   3.004  0.00  0.00     0.017 A 
ATOM      5  C4  UNL d   1      -1.575  -0.268   1.848  0.00  0.00     0.017 A 
ATOM      6  C5  UNL d   1      -0.201  -0.086   1.667  0.00  0.00     0.034 A 
ATOM      7 Cl   UNL d   1      -2.633   0.309   0.609  0.00  0.00    -0.070 Cl
ATOM      8 Cl1  UNL d   1      -3.730  -1.161   3.299  0.00  0.00    -0.070 Cl
ENDROOT
TORSDOF 0
ENDMDL
