MODEL 1
REMARK minimizedAffinity 1.54794216
REMARK minimizedRMSD -1
REMARK  0 active torsions:
REMARK  status: ('A' for Active; 'I' for Inactive)
ROOT
ATOM      1  C   UNL d   1       0.550  -0.593  -0.731  0.00  0.00     0.020 A 
ATOM      2  C1  UNL d   1       0.934  -0.090   0.512  0.00  0.00     0.020 A 
ATOM      3  C2  UNL d   1      -0.035   0.339   1.421  0.00  0.00     0.034 A 
ATOM      4  C3  UNL d   1      -1.393   0.266   1.090  0.00  0.00     0.017 A 
ATOM      5  C4  UNL d   1      -1.777  -0.240  -0.158  0.00  0.00     0.017 A 
ATOM      6  C5  UNL d   1      -0.803  -0.668  -1.064  0.00  0.00     0.034 A 
ATOM      7 Cl   UNL d   1      -3.433  -0.362  -0.638  0.00  0.00    -0.070 Cl
ATOM      8 Cl1  UNL d   1      -2.537   0.814   2.263  0.00  0.00    -0.070 Cl
ENDROOT
TORSDOF 0
ENDMDL
