MODEL 1
REMARK minimizedAffinity 3.94416356
REMARK minimizedRMSD -1
REMARK  0 active torsions:
REMARK  status: ('A' for Active; 'I' for Inactive)
ROOT
ATOM      1  C   UNL d   1       6.000   5.993   1.943  0.00  0.00     0.020 A 
ATOM      2  C1  UNL d   1       5.703   5.357   3.147  0.00  0.00     0.020 A 
ATOM      3  C2  UNL d   1       4.794   4.297   3.172  0.00  0.00     0.034 A 
ATOM      4  C3  UNL d   1       4.179   3.870   1.990  0.00  0.00     0.017 A 
ATOM      5  C4  UNL d   1       4.478   4.509   0.781  0.00  0.00     0.017 A 
ATOM      6  C5  UNL d   1       5.388   5.570   0.762  0.00  0.00     0.034 A 
ATOM      7 Cl   UNL d   1       3.758   4.039  -0.719  0.00  0.00    -0.070 Cl
ATOM      8 Cl1  UNL d   1       3.066   2.553   2.094  0.00  0.00    -0.070 Cl
ENDROOT
TORSDOF 0
ENDMDL
