MODEL 1
REMARK minimizedAffinity 1.20646393
REMARK minimizedRMSD -1
REMARK  0 active torsions:
REMARK  status: ('A' for Active; 'I' for Inactive)
ROOT
ATOM      1  C   UNL d   1       0.566  -1.473   4.551  0.00  0.00     0.020 A 
ATOM      2  C1  UNL d   1      -0.723  -1.655   5.050  0.00  0.00     0.020 A 
ATOM      3  C2  UNL d   1      -1.829  -1.291   4.279  0.00  0.00     0.034 A 
ATOM      4  C3  UNL d   1      -1.647  -0.742   3.004  0.00  0.00     0.017 A 
ATOM      5  C4  UNL d   1      -0.353  -0.560   2.504  0.00  0.00     0.017 A 
ATOM      6  C5  UNL d   1       0.751  -0.927   3.281  0.00  0.00     0.034 A 
ATOM      7 Cl   UNL d   1      -0.049   0.111   0.940  0.00  0.00    -0.070 Cl
ATOM      8 Cl1  UNL d   1      -3.059  -0.315   2.105  0.00  0.00    -0.070 Cl
ENDROOT
TORSDOF 0
ENDMDL
