MODEL 1
REMARK minimizedAffinity 0.422653198
REMARK minimizedRMSD -1
REMARK  0 active torsions:
REMARK  status: ('A' for Active; 'I' for Inactive)
ROOT
ATOM      1  C   UNL d   1       0.238   0.281   0.535  0.00  0.00     0.020 A 
ATOM      2  C1  UNL d   1       0.033  -0.245  -0.740  0.00  0.00     0.020 A 
ATOM      3  C2  UNL d   1      -1.211  -0.780  -1.083  0.00  0.00     0.034 A 
ATOM      4  C3  UNL d   1      -2.254  -0.789  -0.150  0.00  0.00     0.017 A 
ATOM      5  C4  UNL d   1      -2.048  -0.261   1.129  0.00  0.00     0.017 A 
ATOM      6  C5  UNL d   1      -0.800   0.273   1.468  0.00  0.00     0.034 A 
ATOM      7 Cl   UNL d   1      -3.287  -0.238   2.334  0.00  0.00    -0.070 Cl
ATOM      8 Cl1  UNL d   1      -3.766  -1.466  -0.643  0.00  0.00    -0.070 Cl
ENDROOT
TORSDOF 0
ENDMDL
