MODEL 1
REMARK minimizedAffinity 5.18104744
REMARK minimizedRMSD -1
REMARK  0 active torsions:
REMARK  status: ('A' for Active; 'I' for Inactive)
ROOT
ATOM      1  C   UNL d   1      -2.825   0.371   2.641  0.00  0.00     0.020 A 
ATOM      2  C1  UNL d   1      -2.523   0.593   1.298  0.00  0.00     0.020 A 
ATOM      3  C2  UNL d   1      -1.292   0.183   0.782  0.00  0.00     0.034 A 
ATOM      4  C3  UNL d   1      -0.358  -0.451   1.609  0.00  0.00     0.017 A 
ATOM      5  C4  UNL d   1      -0.661  -0.673   2.957  0.00  0.00     0.017 A 
ATOM      6  C5  UNL d   1      -1.895  -0.261   3.469  0.00  0.00     0.034 A 
ATOM      7 Cl   UNL d   1       0.441  -1.448   4.040  0.00  0.00    -0.070 Cl
ATOM      8 Cl1  UNL d   1       1.144  -0.931   0.903  0.00  0.00    -0.070 Cl
ENDROOT
TORSDOF 0
ENDMDL
