MODEL 1
REMARK minimizedAffinity 3.50551128
REMARK minimizedRMSD -1
REMARK  0 active torsions:
REMARK  status: ('A' for Active; 'I' for Inactive)
ROOT
ATOM      1  C   UNL d   1      -0.178  -0.189   0.292  0.00  0.00     0.020 A 
ATOM      2  C1  UNL d   1      -1.551  -0.243   0.055  0.00  0.00     0.020 A 
ATOM      3  C2  UNL d   1      -2.413  -0.717   1.046  0.00  0.00     0.034 A 
ATOM      4  C3  UNL d   1      -1.903  -1.139   2.279  0.00  0.00     0.017 A 
ATOM      5  C4  UNL d   1      -0.525  -1.085   2.516  0.00  0.00     0.017 A 
ATOM      6  C5  UNL d   1       0.334  -0.610   1.520  0.00  0.00     0.034 A 
ATOM      7 Cl   UNL d   1       0.179  -1.588   4.013  0.00  0.00    -0.070 Cl
ATOM      8 Cl1  UNL d   1      -3.027  -1.713   3.459  0.00  0.00    -0.070 Cl
ENDROOT
TORSDOF 0
ENDMDL
