MODEL 1
REMARK minimizedAffinity -0.918728292
REMARK minimizedRMSD -1
REMARK  0 active torsions:
REMARK  status: ('A' for Active; 'I' for Inactive)
ROOT
ATOM      1  C   UNL d   1       2.976   6.000   2.337  0.00  0.00     0.020 A 
ATOM      2  C1  UNL d   1       2.429   4.811   1.857  0.00  0.00     0.020 A 
ATOM      3  C2  UNL d   1       2.900   3.584   2.330  0.00  0.00     0.034 A 
ATOM      4  C3  UNL d   1       3.921   3.544   3.286  0.00  0.00     0.017 A 
ATOM      5  C4  UNL d   1       4.469   4.738   3.768  0.00  0.00     0.017 A 
ATOM      6  C5  UNL d   1       3.994   5.963   3.291  0.00  0.00     0.034 A 
ATOM      7 Cl   UNL d   1       5.731   4.768   4.949  0.00  0.00    -0.070 Cl
ATOM      8 Cl1  UNL d   1       4.454   1.992   3.827  0.00  0.00    -0.070 Cl
ENDROOT
TORSDOF 0
ENDMDL
