MODEL 1
REMARK minimizedAffinity -3.61863899
REMARK minimizedRMSD -1
REMARK  0 active torsions:
REMARK  status: ('A' for Active; 'I' for Inactive)
ROOT
ATOM      1  C   UNL d   1      -0.728   0.587   2.308  0.00  0.00     0.124 A 
ATOM      2  C1  UNL d   1      -1.786   0.273   1.466  0.00  0.00     0.062 A 
ATOM      3  C2  UNL d   1      -1.547  -0.058   0.136  0.00  0.00     0.162 A 
ATOM      4  C3  UNL d   1      -0.243  -0.078  -0.361  0.00  0.00    -0.034 A 
ATOM      5  C4  UNL d   1       0.815   0.240   0.492  0.00  0.00     0.162 A 
ATOM      6  C5  UNL d   1       0.571   0.571   1.820  0.00  0.00     0.062 A 
ATOM      7  F   UNL d   1       1.594   0.874   2.633  0.00  0.00    -0.097 F 
ATOM      8  F1  UNL d   1       2.080   0.231   0.047  0.00  0.00    -0.096 F 
ATOM      9  I   UNL d   1       0.119  -0.573  -2.350  0.00  0.00    -0.060 I 
ATOM     10  F2  UNL d   1      -2.588  -0.358  -0.655  0.00  0.00    -0.096 F 
ATOM     11  F3  UNL d   1      -3.042   0.290   1.935  0.00  0.00    -0.097 F 
ATOM     12  F4  UNL d   1      -0.961   0.907   3.588  0.00  0.00    -0.092 F 
ENDROOT
TORSDOF 0
ENDMDL
