MODEL 1
REMARK minimizedAffinity 0.0429474302
REMARK minimizedRMSD -1
REMARK  0 active torsions:
REMARK  status: ('A' for Active; 'I' for Inactive)
ROOT
ATOM      1  C   UNL d   1       1.350   0.687   1.797  0.00  0.00     0.124 A 
ATOM      2  C1  UNL d   1       0.225   1.224   2.407  0.00  0.00     0.062 A 
ATOM      3  C2  UNL d   1      -1.039   0.994   1.872  0.00  0.00     0.162 A 
ATOM      4  C3  UNL d   1      -1.185   0.221   0.720  0.00  0.00    -0.034 A 
ATOM      5  C4  UNL d   1      -0.049  -0.315   0.111  0.00  0.00     0.162 A 
ATOM      6  C5  UNL d   1       1.212  -0.082   0.650  0.00  0.00     0.062 A 
ATOM      7  F   UNL d   1       2.298  -0.601   0.060  0.00  0.00    -0.097 F 
ATOM      8  F1  UNL d   1      -0.153  -1.062  -0.997  0.00  0.00    -0.096 F 
ATOM      9  I   UNL d   1      -3.073  -0.126  -0.084  0.00  0.00    -0.060 I 
ATOM     10  F2  UNL d   1      -2.109   1.525   2.482  0.00  0.00    -0.096 F 
ATOM     11  F3  UNL d   1       0.355   1.968   3.515  0.00  0.00    -0.097 F 
ATOM     12  F4  UNL d   1       2.565   0.911   2.314  0.00  0.00    -0.092 F 
ENDROOT
TORSDOF 0
ENDMDL
