MODEL 1
REMARK minimizedAffinity -3.33128738
REMARK minimizedRMSD -1
REMARK  0 active torsions:
REMARK  status: ('A' for Active; 'I' for Inactive)
ROOT
ATOM      1  C   UNL d   1      -0.213   0.515   2.543  0.00  0.00     0.124 A 
ATOM      2  C1  UNL d   1       0.970   0.130   1.928  0.00  0.00     0.062 A 
ATOM      3  C2  UNL d   1       0.984  -0.189   0.573  0.00  0.00     0.162 A 
ATOM      4  C3  UNL d   1      -0.190  -0.124  -0.177  0.00  0.00    -0.034 A 
ATOM      5  C4  UNL d   1      -1.377   0.262   0.449  0.00  0.00     0.162 A 
ATOM      6  C5  UNL d   1      -1.385   0.580   1.803  0.00  0.00     0.062 A 
ATOM      7  F   UNL d   1      -2.530   0.951   2.395  0.00  0.00    -0.097 F 
ATOM      8  F1  UNL d   1      -2.524   0.335  -0.243  0.00  0.00    -0.096 F 
ATOM      9  I   UNL d   1      -0.174  -0.601  -2.203  0.00  0.00    -0.060 I 
ATOM     10  F2  UNL d   1       2.142  -0.557   0.005  0.00  0.00    -0.096 F 
ATOM     11  F3  UNL d   1       2.104   0.065   2.641  0.00  0.00    -0.097 F 
ATOM     12  F4  UNL d   1      -0.224   0.820   3.847  0.00  0.00    -0.092 F 
ENDROOT
TORSDOF 0
ENDMDL
