MODEL 1
REMARK minimizedAffinity -2.97681999
REMARK minimizedRMSD -1
REMARK  0 active torsions:
REMARK  status: ('A' for Active; 'I' for Inactive)
ROOT
ATOM      1  C   UNL d   1      -0.249   0.852   2.218  0.00  0.00     0.124 A 
ATOM      2  C1  UNL d   1      -1.418   0.903   1.471  0.00  0.00     0.062 A 
ATOM      3  C2  UNL d   1      -1.406   0.547   0.126  0.00  0.00     0.162 A 
ATOM      4  C3  UNL d   1      -0.220   0.135  -0.482  0.00  0.00    -0.034 A 
ATOM      5  C4  UNL d   1       0.952   0.087   0.275  0.00  0.00     0.162 A 
ATOM      6  C5  UNL d   1       0.934   0.444   1.619  0.00  0.00     0.062 A 
ATOM      7  F   UNL d   1       2.065   0.394   2.339  0.00  0.00    -0.097 F 
ATOM      8  F1  UNL d   1       2.109  -0.305  -0.278  0.00  0.00    -0.096 F 
ATOM      9  I   UNL d   1      -0.198  -0.399  -2.494  0.00  0.00    -0.060 I 
ATOM     10  F2  UNL d   1      -2.550   0.606  -0.571  0.00  0.00    -0.096 F 
ATOM     11  F3  UNL d   1      -2.563   1.298   2.047  0.00  0.00    -0.097 F 
ATOM     12  F4  UNL d   1      -0.264   1.197   3.512  0.00  0.00    -0.092 F 
ENDROOT
TORSDOF 0
ENDMDL
