MODEL 1
REMARK minimizedAffinity -2.95589328
REMARK minimizedRMSD -1
REMARK  0 active torsions:
REMARK  status: ('A' for Active; 'I' for Inactive)
ROOT
ATOM      1  C   UNL d   1      -1.054   1.123   2.522  0.00  0.00     0.124 A 
ATOM      2  C1  UNL d   1      -1.897   0.348   1.738  0.00  0.00     0.062 A 
ATOM      3  C2  UNL d   1      -1.509  -0.033   0.457  0.00  0.00     0.162 A 
ATOM      4  C3  UNL d   1      -0.270   0.361  -0.049  0.00  0.00    -0.034 A 
ATOM      5  C4  UNL d   1       0.572   1.142   0.745  0.00  0.00     0.162 A 
ATOM      6  C5  UNL d   1       0.179   1.520   2.025  0.00  0.00     0.062 A 
ATOM      7  F   UNL d   1       0.995   2.270   2.780  0.00  0.00    -0.097 F 
ATOM      8  F1  UNL d   1       1.770   1.539   0.290  0.00  0.00    -0.096 F 
ATOM      9  I   UNL d   1       0.314  -0.205  -1.964  0.00  0.00    -0.060 I 
ATOM     10  F2  UNL d   1      -2.344  -0.783  -0.278  0.00  0.00    -0.096 F 
ATOM     11  F3  UNL d   1      -3.090  -0.036   2.216  0.00  0.00    -0.097 F 
ATOM     12  F4  UNL d   1      -1.431   1.489   3.754  0.00  0.00    -0.092 F 
ENDROOT
TORSDOF 0
ENDMDL
