MODEL 1
REMARK minimizedAffinity -3.18340468
REMARK minimizedRMSD -1
REMARK  0 active torsions:
REMARK  status: ('A' for Active; 'I' for Inactive)
ROOT
ATOM      1  C   UNL d   1      -2.423   0.505   1.623  0.00  0.00     0.124 A 
ATOM      2  C1  UNL d   1      -2.392  -0.104   0.376  0.00  0.00     0.062 A 
ATOM      3  C2  UNL d   1      -1.176  -0.328  -0.263  0.00  0.00     0.162 A 
ATOM      4  C3  UNL d   1       0.020   0.055   0.345  0.00  0.00    -0.034 A 
ATOM      5  C4  UNL d   1      -0.019   0.667   1.599  0.00  0.00     0.162 A 
ATOM      6  C5  UNL d   1      -1.237   0.889   2.233  0.00  0.00     0.062 A 
ATOM      7  F   UNL d   1      -1.265   1.477   3.438  0.00  0.00    -0.097 F 
ATOM      8  F1  UNL d   1       1.111   1.048   2.211  0.00  0.00    -0.096 F 
ATOM      9  I   UNL d   1       1.840  -0.279  -0.608  0.00  0.00    -0.060 I 
ATOM     10  F2  UNL d   1      -1.175  -0.918  -1.468  0.00  0.00    -0.096 F 
ATOM     11  F3  UNL d   1      -3.536  -0.475  -0.216  0.00  0.00    -0.097 F 
ATOM     12  F4  UNL d   1      -3.594   0.721   2.235  0.00  0.00    -0.092 F 
ENDROOT
TORSDOF 0
ENDMDL
