MODEL 1
REMARK minimizedAffinity -2.61462235
REMARK minimizedRMSD -1
REMARK  0 active torsions:
REMARK  status: ('A' for Active; 'I' for Inactive)
ROOT
ATOM      1  C   UNL d   1      -0.770   0.590   2.770  0.00  0.00     0.124 A 
ATOM      2  C1  UNL d   1      -1.765   0.635   1.803  0.00  0.00     0.062 A 
ATOM      3  C2  UNL d   1      -1.467   0.335   0.477  0.00  0.00     0.162 A 
ATOM      4  C3  UNL d   1      -0.168  -0.015   0.109  0.00  0.00    -0.034 A 
ATOM      5  C4  UNL d   1       0.828  -0.058   1.087  0.00  0.00     0.162 A 
ATOM      6  C5  UNL d   1       0.525   0.243   2.411  0.00  0.00     0.062 A 
ATOM      7  F   UNL d   1       1.488   0.199   3.343  0.00  0.00    -0.097 F 
ATOM      8  F1  UNL d   1       2.087  -0.390   0.768  0.00  0.00    -0.096 F 
ATOM      9  I   UNL d   1       0.281  -0.466  -1.872  0.00  0.00    -0.060 I 
ATOM     10  F2  UNL d   1      -2.449   0.386  -0.435  0.00  0.00    -0.096 F 
ATOM     11  F3  UNL d   1      -3.017   0.970   2.147  0.00  0.00    -0.097 F 
ATOM     12  F4  UNL d   1      -1.059   0.880   4.045  0.00  0.00    -0.092 F 
ENDROOT
TORSDOF 0
ENDMDL
