MODEL 1
REMARK minimizedAffinity -2.96254349
REMARK minimizedRMSD -1
REMARK  2 active torsions:
REMARK  status: ('A' for Active; 'I' for Inactive)
REMARK    1  A    between atoms: C1_2  and  C2_3 
REMARK    2  A    between atoms: C2_3  and  C3_4 
ROOT
ATOM      1  C3  UNL d   1       0.370   0.504   0.026  0.00  0.00    -0.075 A 
ATOM      2  C4  UNL d   1       0.255   1.863  -0.302  0.00  0.00     0.002 A 
ATOM      3  C5  UNL d   1      -0.426   2.740   0.542  0.00  0.00     0.002 A 
ATOM      4  C6  UNL d   1      -1.007   2.270   1.718  0.00  0.00    -0.004 A 
ATOM      5  C7  UNL d   1      -0.913   0.919   2.046  0.00  0.00     0.002 A 
ATOM      6  C8  UNL d   1      -0.229   0.040   1.205  0.00  0.00     0.002 A 
ENDROOT
BRANCH   1   7
ATOM      7  C2  UNL d   1       1.131  -0.445  -0.869  0.00  0.00     0.056 C 
BRANCH   7   8
ATOM      8  C1  UNL d   1       0.561  -1.867  -0.897  0.00  0.00     0.007 C 
ATOM      9  C   UNL d   1       0.844  -2.602  -2.201  0.00  0.00     0.009 C 
ENDBRANCH   7   8
ENDBRANCH   1   7
TORSDOF 2
ENDMDL
