MODEL 1
REMARK minimizedAffinity -4.85530043
REMARK minimizedRMSD -1
REMARK  2 active torsions:
REMARK  status: ('A' for Active; 'I' for Inactive)
REMARK    1  A    between atoms: C1_2  and  C2_3 
REMARK    2  A    between atoms: C2_3  and  C3_4 
ROOT
ATOM      1  C3  UNL d   1      -0.002   0.639   0.492  0.00  0.00    -0.075 A 
ATOM      2  C4  UNL d   1       0.463   1.522  -0.495  0.00  0.00     0.002 A 
ATOM      3  C5  UNL d   1       0.303   2.899  -0.345  0.00  0.00     0.002 A 
ATOM      4  C6  UNL d   1      -0.330   3.411   0.785  0.00  0.00    -0.004 A 
ATOM      5  C7  UNL d   1      -0.810   2.544   1.764  0.00  0.00     0.002 A 
ATOM      6  C8  UNL d   1      -0.648   1.165   1.619  0.00  0.00     0.002 A 
ENDROOT
BRANCH   1   7
ATOM      7  C2  UNL d   1       0.194  -0.851   0.349  0.00  0.00     0.056 C 
BRANCH   7   8
ATOM      8  C1  UNL d   1       0.918  -1.265  -0.936  0.00  0.00     0.007 C 
ATOM      9  C   UNL d   1       0.785  -2.750  -1.249  0.00  0.00     0.009 C 
ENDBRANCH   7   8
ENDBRANCH   1   7
TORSDOF 2
ENDMDL
