MODEL 1
REMARK minimizedAffinity -4.18342257
REMARK minimizedRMSD -1
REMARK  2 active torsions:
REMARK  status: ('A' for Active; 'I' for Inactive)
REMARK    1  A    between atoms: C1_2  and  C2_3 
REMARK    2  A    between atoms: C2_3  and  C3_4 
ROOT
ATOM      1  C3  UNL d   1       0.600  -0.000   0.005  0.00  0.00    -0.075 A 
ATOM      2  C4  UNL d   1       0.008  -0.381   1.219  0.00  0.00     0.002 A 
ATOM      3  C5  UNL d   1      -0.647   0.561   2.013  0.00  0.00     0.002 A 
ATOM      4  C6  UNL d   1      -0.710   1.893   1.611  0.00  0.00    -0.004 A 
ATOM      5  C7  UNL d   1      -0.112   2.285   0.416  0.00  0.00     0.002 A 
ATOM      6  C8  UNL d   1       0.540   1.344  -0.384  0.00  0.00     0.002 A 
ENDROOT
BRANCH   1   7
ATOM      7  C2  UNL d   1       1.284  -1.020  -0.874  0.00  0.00     0.056 C 
BRANCH   7   8
ATOM      8  C1  UNL d   1       0.366  -2.151  -1.348  0.00  0.00     0.007 C 
ATOM      9  C   UNL d   1       0.653  -2.599  -2.775  0.00  0.00     0.009 C 
ENDBRANCH   7   8
ENDBRANCH   1   7
TORSDOF 2
ENDMDL
