MODEL 1
REMARK minimizedAffinity -3.56939387
REMARK minimizedRMSD -1
REMARK  2 active torsions:
REMARK  status: ('A' for Active; 'I' for Inactive)
REMARK    1  A    between atoms: C1_2  and  C2_3 
REMARK    2  A    between atoms: C2_3  and  C3_4 
ROOT
ATOM      1  C3  UNL d   1       0.735  -1.262  -0.523  0.00  0.00    -0.075 A 
ATOM      2  C4  UNL d   1      -0.090  -1.708   0.519  0.00  0.00     0.002 A 
ATOM      3  C5  UNL d   1      -0.487  -0.835   1.532  0.00  0.00     0.002 A 
ATOM      4  C6  UNL d   1      -0.056   0.490   1.523  0.00  0.00    -0.004 A 
ATOM      5  C7  UNL d   1       0.778   0.940   0.502  0.00  0.00     0.002 A 
ATOM      6  C8  UNL d   1       1.173   0.070  -0.516  0.00  0.00     0.002 A 
ENDROOT
BRANCH   1   7
ATOM      7  C2  UNL d   1       1.144  -2.194  -1.639  0.00  0.00     0.056 C 
BRANCH   7   8
ATOM      8  C1  UNL d   1       0.020  -2.509  -2.631  0.00  0.00     0.007 C 
ATOM      9  C   UNL d   1      -0.609  -3.879  -2.410  0.00  0.00     0.009 C 
ENDBRANCH   7   8
ENDBRANCH   1   7
TORSDOF 2
ENDMDL
