MODEL 1
REMARK minimizedAffinity -5.53330612
REMARK minimizedRMSD -1
REMARK  2 active torsions:
REMARK  status: ('A' for Active; 'I' for Inactive)
REMARK    1  A    between atoms: C1_2  and  C2_3 
REMARK    2  A    between atoms: C2_3  and  C3_4 
ROOT
ATOM      1  C3  UNL d   1       0.272  -0.397   0.309  0.00  0.00    -0.075 A 
ATOM      2  C4  UNL d   1      -0.038   0.970   0.252  0.00  0.00     0.002 A 
ATOM      3  C5  UNL d   1      -0.554   1.627   1.370  0.00  0.00     0.002 A 
ATOM      4  C6  UNL d   1      -0.775   0.925   2.553  0.00  0.00    -0.004 A 
ATOM      5  C7  UNL d   1      -0.487  -0.436   2.616  0.00  0.00     0.002 A 
ATOM      6  C8  UNL d   1       0.033  -1.095   1.500  0.00  0.00     0.002 A 
ENDROOT
BRANCH   1   7
ATOM      7  C2  UNL d   1       0.857  -1.106  -0.888  0.00  0.00     0.056 C 
BRANCH   7   8
ATOM      8  C1  UNL d   1      -0.179  -1.838  -1.748  0.00  0.00     0.007 C 
ATOM      9  C   UNL d   1       0.419  -2.477  -2.994  0.00  0.00     0.009 C 
ENDBRANCH   7   8
ENDBRANCH   1   7
TORSDOF 2
ENDMDL
