MODEL 1
REMARK minimizedAffinity -4.53155947
REMARK minimizedRMSD -1
REMARK  2 active torsions:
REMARK  status: ('A' for Active; 'I' for Inactive)
REMARK    1  A    between atoms: C1_2  and  C2_3 
REMARK    2  A    between atoms: C2_3  and  C3_4 
ROOT
ATOM      1  C3  UNL d   1       0.340  -0.316   0.100  0.00  0.00    -0.075 A 
ATOM      2  C4  UNL d   1      -0.139   0.984  -0.124  0.00  0.00     0.002 A 
ATOM      3  C5  UNL d   1      -0.860   1.653   0.865  0.00  0.00     0.002 A 
ATOM      4  C6  UNL d   1      -1.120   1.030   2.084  0.00  0.00    -0.004 A 
ATOM      5  C7  UNL d   1      -0.664  -0.266   2.311  0.00  0.00     0.002 A 
ATOM      6  C8  UNL d   1       0.062  -0.937   1.325  0.00  0.00     0.002 A 
ENDROOT
BRANCH   1   7
ATOM      7  C2  UNL d   1       1.146  -1.034  -0.955  0.00  0.00     0.056 C 
BRANCH   7   8
ATOM      8  C1  UNL d   1       0.722  -2.489  -1.181  0.00  0.00     0.007 C 
ATOM      9  C   UNL d   1       0.656  -2.874  -2.653  0.00  0.00     0.009 C 
ENDBRANCH   7   8
ENDBRANCH   1   7
TORSDOF 2
ENDMDL
