MODEL 1
REMARK minimizedAffinity -2.02502131
REMARK minimizedRMSD -1
REMARK  2 active torsions:
REMARK  status: ('A' for Active; 'I' for Inactive)
REMARK    1  A    between atoms: C1_2  and  C2_3 
REMARK    2  A    between atoms: C2_3  and  C3_4 
ROOT
ATOM      1  C3  UNL d   1       0.695  -1.337  -1.116  0.00  0.00    -0.075 A 
ATOM      2  C4  UNL d   1       0.377  -0.287  -1.989  0.00  0.00     0.002 A 
ATOM      3  C5  UNL d   1       0.038  -0.548  -3.317  0.00  0.00     0.002 A 
ATOM      4  C6  UNL d   1       0.023  -1.858  -3.791  0.00  0.00    -0.004 A 
ATOM      5  C7  UNL d   1       0.354  -2.908  -2.937  0.00  0.00     0.002 A 
ATOM      6  C8  UNL d   1       0.689  -2.650  -1.606  0.00  0.00     0.002 A 
ENDROOT
BRANCH   1   7
ATOM      7  C2  UNL d   1       1.034  -1.064   0.330  0.00  0.00     0.056 C 
BRANCH   7   8
ATOM      8  C1  UNL d   1      -0.189  -0.831   1.224  0.00  0.00     0.007 C 
ATOM      9  C   UNL d   1       0.141  -0.855   2.710  0.00  0.00     0.009 C 
ENDBRANCH   7   8
ENDBRANCH   1   7
TORSDOF 2
ENDMDL
