MODEL 1
REMARK minimizedAffinity -4.72204542
REMARK minimizedRMSD -1
REMARK  2 active torsions:
REMARK  status: ('A' for Active; 'I' for Inactive)
REMARK    1  A    between atoms: C1_2  and  C2_3 
REMARK    2  A    between atoms: C2_3  and  C3_4 
ROOT
ATOM      1  C3  UNL d   1       0.905  -1.650  -1.214  0.00  0.00    -0.075 A 
ATOM      2  C4  UNL d   1       0.585  -1.308  -2.536  0.00  0.00     0.002 A 
ATOM      3  C5  UNL d   1       0.226  -2.295  -3.455  0.00  0.00     0.002 A 
ATOM      4  C6  UNL d   1       0.193  -3.633  -3.068  0.00  0.00    -0.004 A 
ATOM      5  C7  UNL d   1       0.525  -3.985  -1.762  0.00  0.00     0.002 A 
ATOM      6  C8  UNL d   1       0.880  -3.000  -0.839  0.00  0.00     0.002 A 
ENDROOT
BRANCH   1   7
ATOM      7  C2  UNL d   1       1.265  -0.584  -0.206  0.00  0.00     0.056 C 
BRANCH   7   8
ATOM      8  C1  UNL d   1       0.194  -0.351   0.865  0.00  0.00     0.007 C 
ATOM      9  C   UNL d   1       0.683  -0.646   2.277  0.00  0.00     0.009 C 
ENDBRANCH   7   8
ENDBRANCH   1   7
TORSDOF 2
ENDMDL
