MODEL 1
REMARK minimizedAffinity -3.74003315
REMARK minimizedRMSD -1
REMARK  2 active torsions:
REMARK  status: ('A' for Active; 'I' for Inactive)
REMARK    1  A    between atoms: C1_2  and  C2_3 
REMARK    2  A    between atoms: C2_3  and  C3_4 
ROOT
ATOM      1  C3  UNL d   1      -0.135  -0.169  -0.135  0.00  0.00    -0.075 A 
ATOM      2  C4  UNL d   1      -0.392  -0.842   1.068  0.00  0.00     0.002 A 
ATOM      3  C5  UNL d   1      -0.666  -0.127   2.234  0.00  0.00     0.002 A 
ATOM      4  C6  UNL d   1      -0.676   1.266   2.216  0.00  0.00    -0.004 A 
ATOM      5  C7  UNL d   1      -0.405   1.945   1.030  0.00  0.00     0.002 A 
ATOM      6  C8  UNL d   1      -0.136   1.233  -0.140  0.00  0.00     0.002 A 
ENDROOT
BRANCH   1   7
ATOM      7  C2  UNL d   1       0.133  -0.936  -1.408  0.00  0.00     0.056 C 
BRANCH   7   8
ATOM      8  C1  UNL d   1       0.369  -2.435  -1.194  0.00  0.00     0.007 C 
ATOM      9  C   UNL d   1      -0.397  -3.310  -2.178  0.00  0.00     0.009 C 
ENDBRANCH   7   8
ENDBRANCH   1   7
TORSDOF 2
ENDMDL
