MODEL 1
REMARK minimizedAffinity -3.87257767
REMARK minimizedRMSD -1
REMARK  2 active torsions:
REMARK  status: ('A' for Active; 'I' for Inactive)
REMARK    1  A    between atoms: C1_2  and  C2_3 
REMARK    2  A    between atoms: C2_3  and  C3_4 
ROOT
ATOM      1  C3  UNL d   1       0.404  -0.571  -1.192  0.00  0.00    -0.075 A 
ATOM      2  C4  UNL d   1      -0.109  -0.395  -2.485  0.00  0.00     0.002 A 
ATOM      3  C5  UNL d   1      -0.189  -1.472  -3.368  0.00  0.00     0.002 A 
ATOM      4  C6  UNL d   1       0.252  -2.734  -2.975  0.00  0.00    -0.004 A 
ATOM      5  C7  UNL d   1       0.779  -2.916  -1.698  0.00  0.00     0.002 A 
ATOM      6  C8  UNL d   1       0.856  -1.841  -0.811  0.00  0.00     0.002 A 
ENDROOT
BRANCH   1   7
ATOM      7  C2  UNL d   1       0.465   0.584  -0.221  0.00  0.00     0.056 C 
BRANCH   7   8
ATOM      8  C1  UNL d   1      -0.184   0.294   1.136  0.00  0.00     0.007 C 
ATOM      9  C   UNL d   1      -0.967   1.476   1.692  0.00  0.00     0.009 C 
ENDBRANCH   7   8
ENDBRANCH   1   7
TORSDOF 2
ENDMDL
