MODEL 1
REMARK minimizedAffinity -5.31769514
REMARK minimizedRMSD -1
REMARK  0 active torsions:
REMARK  status: ('A' for Active; 'I' for Inactive)
ROOT
ATOM      1  C   UNL d   1       0.295  -2.362  -1.611  0.00  0.00     0.020 A 
ATOM      2  C1  UNL d   1      -0.426  -3.133  -0.700  0.00  0.00     0.020 A 
ATOM      3  C2  UNL d   1      -0.790  -2.596   0.536  0.00  0.00     0.034 A 
ATOM      4  C3  UNL d   1      -0.434  -1.283   0.865  0.00  0.00     0.017 A 
ATOM      5  C4  UNL d   1       0.289  -0.509  -0.050  0.00  0.00     0.017 A 
ATOM      6  C5  UNL d   1       0.652  -1.052  -1.286  0.00  0.00     0.034 A 
ATOM      7 Cl   UNL d   1       0.764   1.119   0.285  0.00  0.00    -0.070 Cl
ATOM      8 Cl1  UNL d   1      -0.919  -0.683   2.411  0.00  0.00    -0.070 Cl
ENDROOT
TORSDOF 0
ENDMDL
