MODEL 1
REMARK minimizedAffinity -3.76666641
REMARK minimizedRMSD -1
REMARK  0 active torsions:
REMARK  status: ('A' for Active; 'I' for Inactive)
ROOT
ATOM      1  C   UNL d   1       0.647  -1.222   1.327  0.00  0.00     0.020 A 
ATOM      2  C1  UNL d   1       0.059  -1.801   0.203  0.00  0.00     0.020 A 
ATOM      3  C2  UNL d   1      -0.222  -1.019  -0.920  0.00  0.00     0.034 A 
ATOM      4  C3  UNL d   1       0.085   0.346  -0.921  0.00  0.00     0.017 A 
ATOM      5  C4  UNL d   1       0.675   0.927   0.208  0.00  0.00     0.017 A 
ATOM      6  C5  UNL d   1       0.954   0.139   1.329  0.00  0.00     0.034 A 
ATOM      7 Cl   UNL d   1       1.082   2.605   0.281  0.00  0.00    -0.070 Cl
ATOM      8 Cl1  UNL d   1      -0.290   1.253  -2.343  0.00  0.00    -0.070 Cl
ENDROOT
TORSDOF 0
ENDMDL
