MODEL 1
REMARK minimizedAffinity -4.23293591
REMARK minimizedRMSD -1
REMARK  0 active torsions:
REMARK  status: ('A' for Active; 'I' for Inactive)
ROOT
ATOM      1  C   UNL d   1      -1.162   0.954  -0.000  0.00  0.00     0.020 A 
ATOM      2  C1  UNL d   1      -1.686   0.158   1.017  0.00  0.00     0.020 A 
ATOM      3  C2  UNL d   1      -1.260  -1.165   1.159  0.00  0.00     0.034 A 
ATOM      4  C3  UNL d   1      -0.308  -1.695   0.281  0.00  0.00     0.017 A 
ATOM      5  C4  UNL d   1       0.218  -0.895  -0.740  0.00  0.00     0.017 A 
ATOM      6  C5  UNL d   1      -0.213   0.428  -0.877  0.00  0.00     0.034 A 
ATOM      7 Cl   UNL d   1       1.396  -1.479  -1.862  0.00  0.00    -0.070 Cl
ATOM      8 Cl1  UNL d   1       0.174  -3.338   0.515  0.00  0.00    -0.070 Cl
ENDROOT
TORSDOF 0
ENDMDL
