MODEL 1
REMARK minimizedAffinity -3.02174282
REMARK minimizedRMSD -1
REMARK  0 active torsions:
REMARK  status: ('A' for Active; 'I' for Inactive)
ROOT
ATOM      1  C   UNL d   1      -1.004   0.902   0.859  0.00  0.00     0.020 A 
ATOM      2  C1  UNL d   1      -0.517   1.590  -0.252  0.00  0.00     0.020 A 
ATOM      3  C2  UNL d   1       0.131   0.895  -1.275  0.00  0.00     0.034 A 
ATOM      4  C3  UNL d   1       0.295  -0.492  -1.189  0.00  0.00     0.017 A 
ATOM      5  C4  UNL d   1      -0.194  -1.182  -0.074  0.00  0.00     0.017 A 
ATOM      6  C5  UNL d   1      -0.842  -0.481   0.948  0.00  0.00     0.034 A 
ATOM      7 Cl   UNL d   1      -0.029  -2.894   0.103  0.00  0.00    -0.070 Cl
ATOM      8 Cl1  UNL d   1       1.107  -1.287  -2.491  0.00  0.00    -0.070 Cl
ENDROOT
TORSDOF 0
ENDMDL
