MODEL 1
REMARK minimizedAffinity -3.64246655
REMARK minimizedRMSD -1
REMARK  0 active torsions:
REMARK  status: ('A' for Active; 'I' for Inactive)
ROOT
ATOM      1  C   UNL d   1       0.299   0.845  -1.237  0.00  0.00     0.020 A 
ATOM      2  C1  UNL d   1       0.772  -0.267  -1.932  0.00  0.00     0.020 A 
ATOM      3  C2  UNL d   1       0.634  -1.544  -1.383  0.00  0.00     0.034 A 
ATOM      4  C3  UNL d   1       0.024  -1.711  -0.134  0.00  0.00     0.017 A 
ATOM      5  C4  UNL d   1      -0.450  -0.593   0.562  0.00  0.00     0.017 A 
ATOM      6  C5  UNL d   1      -0.310   0.683   0.007  0.00  0.00     0.034 A 
ATOM      7 Cl   UNL d   1      -1.215  -0.720   2.107  0.00  0.00    -0.070 Cl
ATOM      8 Cl1  UNL d   1      -0.113  -3.318   0.485  0.00  0.00    -0.070 Cl
ENDROOT
TORSDOF 0
ENDMDL
