MODEL 1
REMARK minimizedAffinity -3.54353333
REMARK minimizedRMSD -1
REMARK  0 active torsions:
REMARK  status: ('A' for Active; 'I' for Inactive)
ROOT
ATOM      1  C   UNL d   1      -1.080  -0.830   2.446  0.00  0.00     0.020 A 
ATOM      2  C1  UNL d   1      -0.967  -2.009   1.709  0.00  0.00     0.020 A 
ATOM      3  C2  UNL d   1      -0.476  -1.971   0.402  0.00  0.00     0.034 A 
ATOM      4  C3  UNL d   1      -0.096  -0.752  -0.172  0.00  0.00     0.017 A 
ATOM      5  C4  UNL d   1      -0.210   0.430   0.569  0.00  0.00     0.017 A 
ATOM      6  C5  UNL d   1      -0.702   0.386   1.877  0.00  0.00     0.034 A 
ATOM      7 Cl   UNL d   1       0.239   1.972  -0.071  0.00  0.00    -0.070 Cl
ATOM      8 Cl1  UNL d   1       0.503  -0.779  -1.792  0.00  0.00    -0.070 Cl
ENDROOT
TORSDOF 0
ENDMDL
