MODEL 1
REMARK minimizedAffinity -4.36988497
REMARK minimizedRMSD -1
REMARK  0 active torsions:
REMARK  status: ('A' for Active; 'I' for Inactive)
ROOT
ATOM      1  C   UNL d   1      -0.447  -2.247   0.464  0.00  0.00     0.020 A 
ATOM      2  C1  UNL d   1      -0.262  -1.440  -0.658  0.00  0.00     0.020 A 
ATOM      3  C2  UNL d   1       0.152  -0.115  -0.505  0.00  0.00     0.034 A 
ATOM      4  C3  UNL d   1       0.382   0.407   0.773  0.00  0.00     0.017 A 
ATOM      5  C4  UNL d   1       0.195  -0.403   1.899  0.00  0.00     0.017 A 
ATOM      6  C5  UNL d   1      -0.220  -1.729   1.740  0.00  0.00     0.034 A 
ATOM      7 Cl   UNL d   1       0.458   0.171   3.508  0.00  0.00    -0.070 Cl
ATOM      8 Cl1  UNL d   1       0.892   2.054   0.888  0.00  0.00    -0.070 Cl
ENDROOT
TORSDOF 0
ENDMDL
