MODEL 1
REMARK minimizedAffinity -1.76006269
REMARK minimizedRMSD -1
REMARK  0 active torsions:
REMARK  status: ('A' for Active; 'I' for Inactive)
ROOT
ATOM      1  C   UNL d   1      -0.131  -2.295  -1.542  0.00  0.00     0.020 A 
ATOM      2  C1  UNL d   1      -0.707  -2.902  -0.427  0.00  0.00     0.020 A 
ATOM      3  C2  UNL d   1      -0.842  -2.187   0.765  0.00  0.00     0.034 A 
ATOM      4  C3  UNL d   1      -0.400  -0.861   0.844  0.00  0.00     0.017 A 
ATOM      5  C4  UNL d   1       0.178  -0.253  -0.276  0.00  0.00     0.017 A 
ATOM      6  C5  UNL d   1       0.311  -0.974  -1.467  0.00  0.00     0.034 A 
ATOM      7 Cl   UNL d   1       0.748   1.379  -0.254  0.00  0.00    -0.070 Cl
ATOM      8 Cl1  UNL d   1      -0.599  -0.037   2.350  0.00  0.00    -0.070 Cl
ENDROOT
TORSDOF 0
ENDMDL
