MODEL 1
REMARK minimizedAffinity -4.7124362
REMARK minimizedRMSD -1
REMARK  0 active torsions:
REMARK  status: ('A' for Active; 'I' for Inactive)
ROOT
ATOM      1  C   UNL d   1       0.466  -3.866  -1.323  0.00  0.00     0.020 A 
ATOM      2  C1  UNL d   1       0.083  -3.775   0.014  0.00  0.00     0.020 A 
ATOM      3  C2  UNL d   1      -0.260  -2.535   0.559  0.00  0.00     0.034 A 
ATOM      4  C3  UNL d   1      -0.221  -1.383  -0.234  0.00  0.00     0.017 A 
ATOM      5  C4  UNL d   1       0.163  -1.476  -1.577  0.00  0.00     0.017 A 
ATOM      6  C5  UNL d   1       0.505  -2.720  -2.117  0.00  0.00     0.034 A 
ATOM      7 Cl   UNL d   1       0.234  -0.098  -2.618  0.00  0.00    -0.070 Cl
ATOM      8 Cl1  UNL d   1      -0.659   0.116   0.505  0.00  0.00    -0.070 Cl
ENDROOT
TORSDOF 0
ENDMDL
