MODEL 1
REMARK minimizedAffinity -1.7902137
REMARK minimizedRMSD -1
REMARK  0 active torsions:
REMARK  status: ('A' for Active; 'I' for Inactive)
ROOT
ATOM      1  C   UNL d   1       0.378  -1.632  -0.058  0.00  0.00     0.020 A 
ATOM      2  C1  UNL d   1       0.820  -1.044   1.127  0.00  0.00     0.020 A 
ATOM      3  C2  UNL d   1       0.863   0.347   1.242  0.00  0.00     0.034 A 
ATOM      4  C3  UNL d   1       0.464   1.154   0.171  0.00  0.00     0.017 A 
ATOM      5  C4  UNL d   1       0.022   0.563  -1.018  0.00  0.00     0.017 A 
ATOM      6  C5  UNL d   1      -0.020  -0.830  -1.128  0.00  0.00     0.034 A 
ATOM      7 Cl   UNL d   1      -0.486   1.494  -2.383  0.00  0.00    -0.070 Cl
ATOM      8 Cl1  UNL d   1       0.544   2.867   0.383  0.00  0.00    -0.070 Cl
ENDROOT
TORSDOF 0
ENDMDL
