MODEL 1
REMARK minimizedAffinity -3.29654908
REMARK minimizedRMSD -1
REMARK  0 active torsions:
REMARK  status: ('A' for Active; 'I' for Inactive)
ROOT
ATOM      1  C   UNL d   1      -0.412  -2.222   1.137  0.00  0.00     0.020 A 
ATOM      2  C1  UNL d   1      -0.615  -0.991   1.759  0.00  0.00     0.020 A 
ATOM      3  C2  UNL d   1      -0.465   0.192   1.032  0.00  0.00     0.034 A 
ATOM      4  C3  UNL d   1      -0.112   0.146  -0.322  0.00  0.00     0.017 A 
ATOM      5  C4  UNL d   1       0.091  -1.090  -0.945  0.00  0.00     0.017 A 
ATOM      6  C5  UNL d   1      -0.060  -2.271  -0.213  0.00  0.00     0.034 A 
ATOM      7 Cl   UNL d   1       0.528  -1.227  -2.612  0.00  0.00    -0.070 Cl
ATOM      8 Cl1  UNL d   1       0.055   1.648  -1.160  0.00  0.00    -0.070 Cl
ENDROOT
TORSDOF 0
ENDMDL
