MODEL 1
REMARK minimizedAffinity -2.5732286
REMARK minimizedRMSD -1
REMARK  0 active torsions:
REMARK  status: ('A' for Active; 'I' for Inactive)
ROOT
ATOM      1  C   UNL d   1      -0.810   0.076   1.763  0.00  0.00     0.020 A 
ATOM      2  C1  UNL d   1      -0.020   0.838   0.904  0.00  0.00     0.020 A 
ATOM      3  C2  UNL d   1       0.674   0.221  -0.139  0.00  0.00     0.034 A 
ATOM      4  C3  UNL d   1       0.578  -1.163  -0.325  0.00  0.00     0.017 A 
ATOM      5  C4  UNL d   1      -0.215  -1.928   0.538  0.00  0.00     0.017 A 
ATOM      6  C5  UNL d   1      -0.907  -1.304   1.581  0.00  0.00     0.034 A 
ATOM      7 Cl   UNL d   1      -0.382  -3.640   0.371  0.00  0.00    -0.070 Cl
ATOM      8 Cl1  UNL d   1       1.463  -1.860  -1.636  0.00  0.00    -0.070 Cl
ENDROOT
TORSDOF 0
ENDMDL
