MODEL 1
REMARK minimizedAffinity -3.15776753
REMARK minimizedRMSD -1
REMARK  0 active torsions:
REMARK  status: ('A' for Active; 'I' for Inactive)
ROOT
ATOM      1  C   UNL d   1      -0.024  -2.891   0.147  0.00  0.00     0.020 A 
ATOM      2  C1  UNL d   1       0.761  -2.192  -0.769  0.00  0.00     0.020 A 
ATOM      3  C2  UNL d   1       0.865  -0.802  -0.681  0.00  0.00     0.034 A 
ATOM      4  C3  UNL d   1       0.183  -0.107   0.324  0.00  0.00     0.017 A 
ATOM      5  C4  UNL d   1      -0.604  -0.809   1.243  0.00  0.00     0.017 A 
ATOM      6  C5  UNL d   1      -0.705  -2.201   1.151  0.00  0.00     0.034 A 
ATOM      7 Cl   UNL d   1      -1.475  -0.021   2.511  0.00  0.00    -0.070 Cl
ATOM      8 Cl1  UNL d   1       0.357   1.612   0.373  0.00  0.00    -0.070 Cl
ENDROOT
TORSDOF 0
ENDMDL
