MODEL 1
REMARK minimizedAffinity -4.97667599
REMARK minimizedRMSD -1
REMARK  0 active torsions:
REMARK  status: ('A' for Active; 'I' for Inactive)
ROOT
ATOM      1  C   UNL d   1      -0.023  -2.910  -0.104  0.00  0.00     0.020 A 
ATOM      2  C1  UNL d   1       0.568  -2.275  -1.195  0.00  0.00     0.020 A 
ATOM      3  C2  UNL d   1       0.647  -0.881  -1.233  0.00  0.00     0.034 A 
ATOM      4  C3  UNL d   1       0.134  -0.118  -0.178  0.00  0.00     0.017 A 
ATOM      5  C4  UNL d   1      -0.459  -0.757   0.917  0.00  0.00     0.017 A 
ATOM      6  C5  UNL d   1      -0.535  -2.153   0.950  0.00  0.00     0.034 A 
ATOM      7 Cl   UNL d   1      -1.115   0.117   2.257  0.00  0.00    -0.070 Cl
ATOM      8 Cl1  UNL d   1       0.265   1.601  -0.291  0.00  0.00    -0.070 Cl
ENDROOT
TORSDOF 0
ENDMDL
