MODEL 1
REMARK minimizedAffinity -4.26749468
REMARK minimizedRMSD -1
REMARK  0 active torsions:
REMARK  status: ('A' for Active; 'I' for Inactive)
ROOT
ATOM      1  C   UNL d   1       0.404  -1.248  -1.220  0.00  0.00     0.020 A 
ATOM      2  C1  UNL d   1       0.229  -0.144  -2.052  0.00  0.00     0.020 A 
ATOM      3  C2  UNL d   1       0.226   1.144  -1.512  0.00  0.00     0.034 A 
ATOM      4  C3  UNL d   1       0.399   1.330  -0.136  0.00  0.00     0.017 A 
ATOM      5  C4  UNL d   1       0.576   0.221   0.699  0.00  0.00     0.017 A 
ATOM      6  C5  UNL d   1       0.577  -1.067   0.152  0.00  0.00     0.034 A 
ATOM      7 Cl   UNL d   1       0.795   0.371   2.407  0.00  0.00    -0.070 Cl
ATOM      8 Cl1  UNL d   1       0.386   2.951   0.464  0.00  0.00    -0.070 Cl
ENDROOT
TORSDOF 0
ENDMDL
