MODEL 1
REMARK minimizedAffinity -2.95541406
REMARK minimizedRMSD -1
REMARK  0 active torsions:
REMARK  status: ('A' for Active; 'I' for Inactive)
ROOT
ATOM      1  C   UNL d   1      -0.463  -2.219   1.437  0.00  0.00     0.020 A 
ATOM      2  C1  UNL d   1      -0.384  -1.071   2.223  0.00  0.00     0.020 A 
ATOM      3  C2  UNL d   1      -0.003   0.144   1.650  0.00  0.00     0.034 A 
ATOM      4  C3  UNL d   1       0.302   0.213   0.285  0.00  0.00     0.017 A 
ATOM      5  C4  UNL d   1       0.223  -0.941  -0.504  0.00  0.00     0.017 A 
ATOM      6  C5  UNL d   1      -0.160  -2.154   0.076  0.00  0.00     0.034 A 
ATOM      7 Cl   UNL d   1       0.583  -0.934  -2.194  0.00  0.00    -0.070 Cl
ATOM      8 Cl1  UNL d   1       0.766   1.748  -0.358  0.00  0.00    -0.070 Cl
ENDROOT
TORSDOF 0
ENDMDL
