MODEL 1
REMARK minimizedAffinity 8.13838005
REMARK minimizedRMSD -1
REMARK  0 active torsions:
REMARK  status: ('A' for Active; 'I' for Inactive)
ROOT
ATOM      1  C4' PXY d   1       4.146  -2.902   5.999  0.00  0.00     0.077 C 
ATOM      2  C1' PXY d   1       5.852  -1.843   0.579  0.00  0.00     0.077 C 
ATOM      3  C1  PXY d   1       5.393  -2.124   1.996  0.00  0.00    -0.082 A 
ATOM      4  C2  PXY d   1       6.000  -1.529   3.010  0.00  0.00     0.003 A 
ATOM      5  C3  PXY d   1       5.618  -1.796   4.300  0.00  0.00     0.003 A 
ATOM      6  C4  PXY d   1       4.570  -2.641   4.551  0.00  0.00    -0.082 A 
ATOM      7  C5  PXY d   1       3.939  -3.243   3.521  0.00  0.00     0.003 A 
ATOM      8  C6  PXY d   1       4.368  -2.990   2.222  0.00  0.00     0.003 A 
ENDROOT
TORSDOF 0
ENDMDL
