MODEL 1
REMARK minimizedAffinity 14.1729736
REMARK minimizedRMSD -1
REMARK  0 active torsions:
REMARK  status: ('A' for Active; 'I' for Inactive)
ROOT
ATOM      1  C4' PXY d   1       3.856  -1.131   0.722  0.00  0.00     0.077 C 
ATOM      2  C1' PXY d   1      -1.771  -2.135   1.585  0.00  0.00     0.077 C 
ATOM      3  C1  PXY d   1      -0.294  -1.884   1.353  0.00  0.00    -0.082 A 
ATOM      4  C2  PXY d   1       0.339  -0.982   2.087  0.00  0.00     0.003 A 
ATOM      5  C3  PXY d   1       1.667  -0.720   1.869  0.00  0.00     0.003 A 
ATOM      6  C4  PXY d   1       2.368  -1.424   0.927  0.00  0.00    -0.082 A 
ATOM      7  C5  PXY d   1       1.732  -2.353   0.182  0.00  0.00     0.003 A 
ATOM      8  C6  PXY d   1       0.374  -2.576   0.390  0.00  0.00     0.003 A 
ENDROOT
TORSDOF 0
ENDMDL
