MODEL 1
REMARK minimizedAffinity 9.24706078
REMARK minimizedRMSD -1
REMARK  0 active torsions:
REMARK  status: ('A' for Active; 'I' for Inactive)
ROOT
ATOM      1  C4' PXY d   1       2.677  -4.938  -0.480  0.00  0.00     0.077 C 
ATOM      2  C1' PXY d   1      -0.244  -1.115   2.725  0.00  0.00     0.077 C 
ATOM      3  C1  PXY d   1       0.531  -2.108   1.881  0.00  0.00    -0.082 A 
ATOM      4  C2  PXY d   1      -0.085  -3.173   1.393  0.00  0.00     0.003 A 
ATOM      5  C3  PXY d   1       0.607  -4.097   0.655  0.00  0.00     0.003 A 
ATOM      6  C4  PXY d   1       1.932  -3.904   0.369  0.00  0.00    -0.082 A 
ATOM      7  C5  PXY d   1       2.565  -2.815   0.854  0.00  0.00     0.003 A 
ATOM      8  C6  PXY d   1       1.854  -1.909   1.636  0.00  0.00     0.003 A 
ENDROOT
TORSDOF 0
ENDMDL
