MODEL 1
REMARK minimizedAffinity 3.60360146
REMARK minimizedRMSD -1
REMARK  0 active torsions:
REMARK  status: ('A' for Active; 'I' for Inactive)
ROOT
ATOM      1  C4' PXY d   1       0.660  -5.417   0.767  0.00  0.00     0.077 C 
ATOM      2  C1' PXY d   1       2.707  -0.041   0.202  0.00  0.00     0.077 C 
ATOM      3  C1  PXY d   1       2.171  -1.452   0.337  0.00  0.00    -0.082 A 
ATOM      4  C2  PXY d   1       1.426  -1.772   1.383  0.00  0.00     0.003 A 
ATOM      5  C3  PXY d   1       0.960  -3.052   1.538  0.00  0.00     0.003 A 
ATOM      6  C4  PXY d   1       1.215  -4.002   0.584  0.00  0.00    -0.082 A 
ATOM      7  C5  PXY d   1       1.964  -3.681  -0.491  0.00  0.00     0.003 A 
ATOM      8  C6  PXY d   1       2.463  -2.386  -0.608  0.00  0.00     0.003 A 
ENDROOT
TORSDOF 0
ENDMDL
