MODEL 1
REMARK minimizedAffinity 6.31970263
REMARK minimizedRMSD -1
REMARK  0 active torsions:
REMARK  status: ('A' for Active; 'I' for Inactive)
ROOT
ATOM      1  C4' PXY d   1      -0.536  -1.026   1.431  0.00  0.00     0.077 C 
ATOM      2  C1' PXY d   1      -5.006  -0.941  -2.233  0.00  0.00     0.077 C 
ATOM      3  C1  PXY d   1      -3.842  -0.967  -1.263  0.00  0.00    -0.082 A 
ATOM      4  C2  PXY d   1      -2.762  -0.246  -1.517  0.00  0.00     0.003 A 
ATOM      5  C3  PXY d   1      -1.687  -0.283  -0.667  0.00  0.00     0.003 A 
ATOM      6  C4  PXY d   1      -1.739  -1.023   0.484  0.00  0.00    -0.082 A 
ATOM      7  C5  PXY d   1      -2.842  -1.753   0.756  0.00  0.00     0.003 A 
ATOM      8  C6  PXY d   1      -3.906  -1.735  -0.141  0.00  0.00     0.003 A 
ENDROOT
TORSDOF 0
ENDMDL
