MODEL 1
REMARK minimizedAffinity 9.35327244
REMARK minimizedRMSD -1
REMARK  0 active torsions:
REMARK  status: ('A' for Active; 'I' for Inactive)
ROOT
ATOM      1  C4' PXY d   1      -5.999  -2.607  -4.507  0.00  0.00     0.077 C 
ATOM      2  C1' PXY d   1      -2.975   1.504  -1.793  0.00  0.00     0.077 C 
ATOM      3  C1  PXY d   1      -3.778   0.434  -2.506  0.00  0.00    -0.082 A 
ATOM      4  C2  PXY d   1      -3.483  -0.842  -2.315  0.00  0.00     0.003 A 
ATOM      5  C3  PXY d   1      -4.179  -1.821  -2.976  0.00  0.00     0.003 A 
ATOM      6  C4  PXY d   1      -5.221  -1.494  -3.801  0.00  0.00    -0.082 A 
ATOM      7  C5  PXY d   1      -5.535  -0.195  -3.993  0.00  0.00     0.003 A 
ATOM      8  C6  PXY d   1      -4.790   0.786  -3.344  0.00  0.00     0.003 A 
ENDROOT
TORSDOF 0
ENDMDL
