MODEL 1
REMARK minimizedAffinity 9.98331738
REMARK minimizedRMSD -1
REMARK  0 active torsions:
REMARK  status: ('A' for Active; 'I' for Inactive)
ROOT
ATOM      1  C4' PXY d   1       0.234  -0.964   1.990  0.00  0.00     0.077 C 
ATOM      2  C1' PXY d   1       3.394  -5.032  -0.633  0.00  0.00     0.077 C 
ATOM      3  C1  PXY d   1       2.577  -3.958   0.058  0.00  0.00    -0.082 A 
ATOM      4  C2  PXY d   1       1.364  -4.245   0.503  0.00  0.00     0.003 A 
ATOM      5  C3  PXY d   1       0.598  -3.278   1.101  0.00  0.00     0.003 A 
ATOM      6  C4  PXY d   1       1.099  -2.018   1.294  0.00  0.00    -0.082 A 
ATOM      7  C5  PXY d   1       2.340  -1.721   0.853  0.00  0.00     0.003 A 
ATOM      8  C6  PXY d   1       3.085  -2.706   0.211  0.00  0.00     0.003 A 
ENDROOT
TORSDOF 0
ENDMDL
