MODEL 1
REMARK minimizedAffinity 7.96522522
REMARK minimizedRMSD -1
REMARK  0 active torsions:
REMARK  status: ('A' for Active; 'I' for Inactive)
ROOT
ATOM      1  C4' PXY d   1       3.802  -6.000  -0.556  0.00  0.00     0.077 C 
ATOM      2  C1' PXY d   1       0.678  -1.413   1.061  0.00  0.00     0.077 C 
ATOM      3  C1  PXY d   1       1.487  -2.624   0.640  0.00  0.00    -0.082 A 
ATOM      4  C2  PXY d   1       2.809  -2.572   0.677  0.00  0.00     0.003 A 
ATOM      5  C3  PXY d   1       3.556  -3.647   0.270  0.00  0.00     0.003 A 
ATOM      6  C4  PXY d   1       2.945  -4.805  -0.131  0.00  0.00    -0.082 A 
ATOM      7  C5  PXY d   1       1.597  -4.868  -0.162  0.00  0.00     0.003 A 
ATOM      8  C6  PXY d   1       0.856  -3.753   0.217  0.00  0.00     0.003 A 
ENDROOT
TORSDOF 0
ENDMDL
