MODEL 1
REMARK minimizedAffinity 6.73530054
REMARK minimizedRMSD -1
REMARK  0 active torsions:
REMARK  status: ('A' for Active; 'I' for Inactive)
ROOT
ATOM      1  C4' PXY d   1      -1.388  -1.929   2.127  0.00  0.00     0.077 C 
ATOM      2  C1' PXY d   1       2.621  -4.964  -0.725  0.00  0.00     0.077 C 
ATOM      3  C1  PXY d   1       1.579  -4.158   0.025  0.00  0.00    -0.082 A 
ATOM      4  C2  PXY d   1       0.535  -4.774   0.557  0.00  0.00     0.003 A 
ATOM      5  C3  PXY d   1      -0.434  -4.057   1.211  0.00  0.00     0.003 A 
ATOM      6  C4  PXY d   1      -0.306  -2.703   1.369  0.00  0.00    -0.082 A 
ATOM      7  C5  PXY d   1       0.762  -2.069   0.838  0.00  0.00     0.003 A 
ATOM      8  C6  PXY d   1       1.713  -2.809   0.142  0.00  0.00     0.003 A 
ENDROOT
TORSDOF 0
ENDMDL
