MODEL 1
REMARK minimizedAffinity 9.20883751
REMARK minimizedRMSD -1
REMARK  0 active torsions:
REMARK  status: ('A' for Active; 'I' for Inactive)
ROOT
ATOM      1  C4' PXY d   1       1.183  -0.089   2.628  0.00  0.00     0.077 C 
ATOM      2  C1' PXY d   1       1.892  -4.948  -0.422  0.00  0.00     0.077 C 
ATOM      3  C1  PXY d   1       1.693  -3.674   0.376  0.00  0.00    -0.082 A 
ATOM      4  C2  PXY d   1       2.695  -2.819   0.503  0.00  0.00     0.003 A 
ATOM      5  C3  PXY d   1       2.542  -1.678   1.247  0.00  0.00     0.003 A 
ATOM      6  C4  PXY d   1       1.336  -1.383   1.824  0.00  0.00    -0.082 A 
ATOM      7  C5  PXY d   1       0.306  -2.245   1.690  0.00  0.00     0.003 A 
ATOM      8  C6  PXY d   1       0.494  -3.418   0.964  0.00  0.00     0.003 A 
ENDROOT
TORSDOF 0
ENDMDL
