MODEL 1
REMARK minimizedAffinity 15.5241556
REMARK minimizedRMSD -1
REMARK  0 active torsions:
REMARK  status: ('A' for Active; 'I' for Inactive)
ROOT
ATOM      1  C4' PXY d   1       1.105  -0.227   2.759  0.00  0.00     0.077 C 
ATOM      2  C1' PXY d   1       2.464  -4.969  -0.254  0.00  0.00     0.077 C 
ATOM      3  C1  PXY d   1       2.098  -3.723   0.527  0.00  0.00    -0.082 A 
ATOM      4  C2  PXY d   1       2.985  -3.180   1.346  0.00  0.00     0.003 A 
ATOM      5  C3  PXY d   1       2.660  -2.071   2.084  0.00  0.00     0.003 A 
ATOM      6  C4  PXY d   1       1.433  -1.480   1.943  0.00  0.00    -0.082 A 
ATOM      7  C5  PXY d   1       0.527  -2.022   1.102  0.00  0.00     0.003 A 
ATOM      8  C6  PXY d   1       0.862  -3.171   0.393  0.00  0.00     0.003 A 
ENDROOT
TORSDOF 0
ENDMDL
