MODEL 1
REMARK minimizedAffinity 0.631135523
REMARK minimizedRMSD -1
REMARK  0 active torsions:
REMARK  status: ('A' for Active; 'I' for Inactive)
ROOT
ATOM      1  C   UNL d   1       0.707   1.141   2.647  0.00  0.00     0.172 C 
ATOM      2  N   UNL d   1       1.037   2.325   1.891  0.00  0.00    -0.070 N 
ATOM      3  C1  UNL d   1       2.133   3.121   2.091  0.00  0.00    -0.004 A 
ATOM      4  C2  UNL d   1       2.087   4.144   1.169  0.00  0.00    -0.047 A 
ATOM      5  C3  UNL d   1       0.922   3.957   0.387  0.00  0.00    -0.047 A 
ATOM      6  C4  UNL d   1       0.291   2.824   0.856  0.00  0.00    -0.004 A 
ENDROOT
TORSDOF 0
ENDMDL
