MODEL 1
REMARK minimizedAffinity 1.64327037
REMARK minimizedRMSD -1
REMARK  0 active torsions:
REMARK  status: ('A' for Active; 'I' for Inactive)
ROOT
ATOM      1  C   UNL d   1      -0.892   1.867   1.928  0.00  0.00     0.172 C 
ATOM      2  N   UNL d   1      -0.765   2.552   0.663  0.00  0.00    -0.070 N 
ATOM      3  C1  UNL d   1      -1.251   3.801   0.380  0.00  0.00    -0.004 A 
ATOM      4  C2  UNL d   1      -0.925   4.093  -0.927  0.00  0.00    -0.047 A 
ATOM      5  C3  UNL d   1      -0.220   2.982  -1.447  0.00  0.00    -0.047 A 
ATOM      6  C4  UNL d   1      -0.136   2.042  -0.442  0.00  0.00    -0.004 A 
ENDROOT
TORSDOF 0
ENDMDL
