MODEL 1
REMARK minimizedAffinity 3.45647764
REMARK minimizedRMSD -1
REMARK  0 active torsions:
REMARK  status: ('A' for Active; 'I' for Inactive)
ROOT
ATOM      1  C   UNL d   1       0.015   0.860  -1.503  0.00  0.00     0.172 C 
ATOM      2  N   UNL d   1      -0.515   2.115  -1.025  0.00  0.00    -0.070 N 
ATOM      3  C1  UNL d   1      -0.585   3.278  -1.744  0.00  0.00    -0.004 A 
ATOM      4  C2  UNL d   1      -1.152   4.240  -0.936  0.00  0.00    -0.047 A 
ATOM      5  C3  UNL d   1      -1.432   3.634   0.312  0.00  0.00    -0.047 A 
ATOM      6  C4  UNL d   1      -1.028   2.319   0.229  0.00  0.00    -0.004 A 
ENDROOT
TORSDOF 0
ENDMDL
