MODEL 1
REMARK minimizedAffinity -2.40431619
REMARK minimizedRMSD -1
REMARK  0 active torsions:
REMARK  status: ('A' for Active; 'I' for Inactive)
ROOT
ATOM      1  C   UNL d   1       1.696   3.655   2.191  0.00  0.00     0.172 C 
ATOM      2  N   UNL d   1       0.289   3.496   1.908  0.00  0.00    -0.070 N 
ATOM      3  C1  UNL d   1      -0.389   4.088   0.876  0.00  0.00    -0.004 A 
ATOM      4  C2  UNL d   1      -1.705   3.686   0.949  0.00  0.00    -0.047 A 
ATOM      5  C3  UNL d   1      -1.822   2.823   2.065  0.00  0.00    -0.047 A 
ATOM      6  C4  UNL d   1      -0.573   2.723   2.640  0.00  0.00    -0.004 A 
ENDROOT
TORSDOF 0
ENDMDL
