MODEL 1
REMARK minimizedAffinity -0.606002331
REMARK minimizedRMSD -1
REMARK  0 active torsions:
REMARK  status: ('A' for Active; 'I' for Inactive)
ROOT
ATOM      1  C   UNL d   1      -0.150   0.552   2.643  0.00  0.00     0.172 C 
ATOM      2  N   UNL d   1      -0.498   1.754   1.922  0.00  0.00    -0.070 N 
ATOM      3  C1  UNL d   1      -0.601   1.867   0.562  0.00  0.00    -0.004 A 
ATOM      4  C2  UNL d   1      -0.952   3.168   0.272  0.00  0.00    -0.047 A 
ATOM      5  C3  UNL d   1      -1.062   3.861   1.501  0.00  0.00    -0.047 A 
ATOM      6  C4  UNL d   1      -0.776   2.961   2.506  0.00  0.00    -0.004 A 
ENDROOT
TORSDOF 0
ENDMDL
