MODEL 1
REMARK minimizedAffinity 1.07307959
REMARK minimizedRMSD -1
REMARK  0 active torsions:
REMARK  status: ('A' for Active; 'I' for Inactive)
ROOT
ATOM      1  C   UNL d   1      -0.396   2.279   1.887  0.00  0.00     0.172 C 
ATOM      2  N   UNL d   1      -0.671   2.834   0.582  0.00  0.00    -0.070 N 
ATOM      3  C1  UNL d   1      -1.674   3.717   0.285  0.00  0.00    -0.004 A 
ATOM      4  C2  UNL d   1      -1.600   4.003  -1.061  0.00  0.00    -0.047 A 
ATOM      5  C3  UNL d   1      -0.515   3.266  -1.592  0.00  0.00    -0.047 A 
ATOM      6  C4  UNL d   1       0.043   2.551  -0.553  0.00  0.00    -0.004 A 
ENDROOT
TORSDOF 0
ENDMDL
