MODEL 1
REMARK minimizedAffinity 3.37120771
REMARK minimizedRMSD -1
REMARK  0 active torsions:
REMARK  status: ('A' for Active; 'I' for Inactive)
ROOT
ATOM      1  C   UNL d   1      -0.421   1.449   2.677  0.00  0.00     0.172 C 
ATOM      2  N   UNL d   1       0.471   0.461   2.116  0.00  0.00    -0.070 N 
ATOM      3  C1  UNL d   1       1.234  -0.423   2.831  0.00  0.00    -0.004 A 
ATOM      4  C2  UNL d   1       1.941  -1.192   1.933  0.00  0.00    -0.047 A 
ATOM      5  C3  UNL d   1       1.592  -0.755   0.633  0.00  0.00    -0.047 A 
ATOM      6  C4  UNL d   1       0.680   0.270   0.776  0.00  0.00    -0.004 A 
ENDROOT
TORSDOF 0
ENDMDL
