MODEL 1
REMARK minimizedAffinity -3.59508753
REMARK minimizedRMSD -1
REMARK  0 active torsions:
REMARK  status: ('A' for Active; 'I' for Inactive)
ROOT
ATOM      1  C   UNL d   1      -0.778   1.224   3.170  0.00  0.00    -0.002 A 
ATOM      2  C1  UNL d   1       0.604   1.136   3.090  0.00  0.00     0.010 A 
ATOM      3  C2  UNL d   1       1.219   0.651   1.934  0.00  0.00     0.041 A 
ATOM      4  C3  UNL d   1       0.414   0.254   0.849  0.00  0.00    -0.075 A 
ATOM      5  S   UNL d   1       0.947  -0.369  -0.668  0.00  0.00     0.015 SA
ATOM      6  C4  UNL d   1      -0.648  -0.532  -1.246  0.00  0.00     0.022 A 
ATOM      7  C5  UNL d   1      -1.577  -0.126  -0.317  0.00  0.00     0.026 A 
ATOM      8  C6  UNL d   1      -0.980   0.335   0.905  0.00  0.00    -0.082 A 
ATOM      9  C7  UNL d   1      -1.574   0.830   2.091  0.00  0.00     0.045 A 
ENDROOT
TORSDOF 0
ENDMDL
