MODEL 1
REMARK minimizedAffinity -4.30402231
REMARK minimizedRMSD -1
REMARK  0 active torsions:
REMARK  status: ('A' for Active; 'I' for Inactive)
ROOT
ATOM      1  C   UNL d   1      -1.424   0.902   3.037  0.00  0.00    -0.002 A 
ATOM      2  C1  UNL d   1      -2.142   0.993   1.853  0.00  0.00     0.010 A 
ATOM      3  C2  UNL d   1      -1.579   0.572   0.646  0.00  0.00     0.041 A 
ATOM      4  C3  UNL d   1      -0.270   0.052   0.650  0.00  0.00    -0.075 A 
ATOM      5  S   UNL d   1       0.622  -0.526  -0.707  0.00  0.00     0.015 SA
ATOM      6  C4  UNL d   1       1.978  -0.908   0.252  0.00  0.00     0.022 A 
ATOM      7  C5  UNL d   1       1.772  -0.608   1.578  0.00  0.00     0.026 A 
ATOM      8  C6  UNL d   1       0.473  -0.050   1.829  0.00  0.00    -0.082 A 
ATOM      9  C7  UNL d   1      -0.126   0.386   3.036  0.00  0.00     0.045 A 
ENDROOT
TORSDOF 0
ENDMDL
