MODEL 1
REMARK minimizedAffinity -0.536782801
REMARK minimizedRMSD -1
REMARK  0 active torsions:
REMARK  status: ('A' for Active; 'I' for Inactive)
ROOT
ATOM      1  C   UNL d   1       1.788   0.518  -3.731  0.00  0.00    -0.002 A 
ATOM      2  C1  UNL d   1       0.567  -0.024  -4.107  0.00  0.00     0.010 A 
ATOM      3  C2  UNL d   1      -0.384  -0.369  -3.145  0.00  0.00     0.041 A 
ATOM      4  C3  UNL d   1      -0.085  -0.157  -1.785  0.00  0.00    -0.075 A 
ATOM      5  S   UNL d   1      -1.096  -0.504  -0.432  0.00  0.00     0.015 SA
ATOM      6  C4  UNL d   1       0.068   0.060   0.678  0.00  0.00     0.022 A 
ATOM      7  C5  UNL d   1       1.207   0.505   0.049  0.00  0.00     0.026 A 
ATOM      8  C6  UNL d   1       1.137   0.388  -1.381  0.00  0.00    -0.082 A 
ATOM      9  C7  UNL d   1       2.081   0.727  -2.381  0.00  0.00     0.045 A 
ENDROOT
TORSDOF 0
ENDMDL
