MODEL 1
REMARK minimizedAffinity 5.17562103
REMARK minimizedRMSD -1
REMARK  0 active torsions:
REMARK  status: ('A' for Active; 'I' for Inactive)
ROOT
ATOM      1  C   UNL d   1       4.021  -5.364  -3.164  0.00  0.00     0.020 A 
ATOM      2  C1  UNL d   1       4.430  -5.570  -1.847  0.00  0.00     0.020 A 
ATOM      3  C2  UNL d   1       4.590  -4.482  -0.987  0.00  0.00     0.034 A 
ATOM      4  C3  UNL d   1       4.339  -3.182  -1.442  0.00  0.00     0.017 A 
ATOM      5  C4  UNL d   1       3.928  -2.976  -2.764  0.00  0.00     0.017 A 
ATOM      6  C5  UNL d   1       3.771  -4.069  -3.621  0.00  0.00     0.034 A 
ATOM      7 Cl   UNL d   1       3.601  -1.402  -3.398  0.00  0.00    -0.070 Cl
ATOM      8 Cl1  UNL d   1       4.556  -1.883  -0.323  0.00  0.00    -0.070 Cl
ENDROOT
TORSDOF 0
ENDMDL
