MODEL 1
REMARK minimizedAffinity -0.571652174
REMARK minimizedRMSD -1
REMARK  0 active torsions:
REMARK  status: ('A' for Active; 'I' for Inactive)
ROOT
ATOM      1  C   UNL d   1       3.424  -3.750  -3.862  0.00  0.00     0.020 A 
ATOM      2  C1  UNL d   1       3.934  -5.048  -3.832  0.00  0.00     0.020 A 
ATOM      3  C2  UNL d   1       4.698  -5.473  -2.743  0.00  0.00     0.034 A 
ATOM      4  C3  UNL d   1       4.954  -4.600  -1.680  0.00  0.00     0.017 A 
ATOM      5  C4  UNL d   1       4.443  -3.298  -1.711  0.00  0.00     0.017 A 
ATOM      6  C5  UNL d   1       3.678  -2.877  -2.804  0.00  0.00     0.034 A 
ATOM      7 Cl   UNL d   1       4.717  -2.163  -0.436  0.00  0.00    -0.070 Cl
ATOM      8 Cl1  UNL d   1       5.906  -5.193  -0.366  0.00  0.00    -0.070 Cl
ENDROOT
TORSDOF 0
ENDMDL
