MODEL 1
REMARK minimizedAffinity -2.15179038
REMARK minimizedRMSD -1
REMARK  0 active torsions:
REMARK  status: ('A' for Active; 'I' for Inactive)
ROOT
ATOM      1  C   UNL d   1       5.948  -3.570  -1.019  0.00  0.00     0.020 A 
ATOM      2  C1  UNL d   1       5.775  -4.783  -1.683  0.00  0.00     0.020 A 
ATOM      3  C2  UNL d   1       4.735  -4.933  -2.604  0.00  0.00     0.034 A 
ATOM      4  C3  UNL d   1       3.866  -3.867  -2.863  0.00  0.00     0.017 A 
ATOM      5  C4  UNL d   1       4.041  -2.650  -2.196  0.00  0.00     0.017 A 
ATOM      6  C5  UNL d   1       5.083  -2.505  -1.275  0.00  0.00     0.034 A 
ATOM      7 Cl   UNL d   1       3.008  -1.290  -2.464  0.00  0.00    -0.070 Cl
ATOM      8 Cl1  UNL d   1       2.603  -4.123  -4.014  0.00  0.00    -0.070 Cl
ENDROOT
TORSDOF 0
ENDMDL
