MODEL 1
REMARK minimizedAffinity -0.700120091
REMARK minimizedRMSD -1
REMARK  0 active torsions:
REMARK  status: ('A' for Active; 'I' for Inactive)
ROOT
ATOM      1  C   UNL d   1       4.386  -5.323  -3.979  0.00  0.00     0.020 A 
ATOM      2  C1  UNL d   1       3.526  -4.251  -4.213  0.00  0.00     0.020 A 
ATOM      3  C2  UNL d   1       3.343  -3.275  -3.230  0.00  0.00     0.034 A 
ATOM      4  C3  UNL d   1       4.021  -3.370  -2.009  0.00  0.00     0.017 A 
ATOM      5  C4  UNL d   1       4.884  -4.447  -1.775  0.00  0.00     0.017 A 
ATOM      6  C5  UNL d   1       5.063  -5.421  -2.763  0.00  0.00     0.034 A 
ATOM      7 Cl   UNL d   1       5.754  -4.632  -0.294  0.00  0.00    -0.070 Cl
ATOM      8 Cl1  UNL d   1       3.747  -2.128  -0.840  0.00  0.00    -0.070 Cl
ENDROOT
TORSDOF 0
ENDMDL
