MODEL 1
REMARK minimizedAffinity 1.48152244
REMARK minimizedRMSD -1
REMARK  0 active torsions:
REMARK  status: ('A' for Active; 'I' for Inactive)
ROOT
ATOM      1  C   UNL d   1      -0.179   5.411  -0.819  0.00  0.00     0.020 A 
ATOM      2  C1  UNL d   1      -1.403   5.678  -1.430  0.00  0.00     0.020 A 
ATOM      3  C2  UNL d   1      -2.228   4.625  -1.832  0.00  0.00     0.034 A 
ATOM      4  C3  UNL d   1      -1.828   3.300  -1.623  0.00  0.00     0.017 A 
ATOM      5  C4  UNL d   1      -0.599   3.033  -1.009  0.00  0.00     0.017 A 
ATOM      6  C5  UNL d   1       0.222   4.091  -0.609  0.00  0.00     0.034 A 
ATOM      7 Cl   UNL d   1      -0.039   1.424  -0.718  0.00  0.00    -0.070 Cl
ATOM      8 Cl1  UNL d   1      -2.898   2.047  -2.145  0.00  0.00    -0.070 Cl
ENDROOT
TORSDOF 0
ENDMDL
