MODEL 1
REMARK minimizedAffinity 4.09743261
REMARK minimizedRMSD -1
REMARK  0 active torsions:
REMARK  status: ('A' for Active; 'I' for Inactive)
ROOT
ATOM      1  C   UNL d   1      -0.345   2.278   2.093  0.00  0.00     0.020 A 
ATOM      2  C1  UNL d   1      -0.909   1.136   1.525  0.00  0.00     0.020 A 
ATOM      3  C2  UNL d   1      -0.958   0.998   0.136  0.00  0.00     0.034 A 
ATOM      4  C3  UNL d   1      -0.442   2.004  -0.690  0.00  0.00     0.017 A 
ATOM      5  C4  UNL d   1       0.123   3.150  -0.119  0.00  0.00     0.017 A 
ATOM      6  C5  UNL d   1       0.170   3.282   1.273  0.00  0.00     0.034 A 
ATOM      7 Cl   UNL d   1       0.780   4.433  -1.072  0.00  0.00    -0.070 Cl
ATOM      8 Cl1  UNL d   1      -0.536   1.768  -2.399  0.00  0.00    -0.070 Cl
ENDROOT
TORSDOF 0
ENDMDL
