MODEL 1
REMARK minimizedAffinity 7.37334061
REMARK minimizedRMSD -1
REMARK  0 active torsions:
REMARK  status: ('A' for Active; 'I' for Inactive)
ROOT
ATOM      1  C   UNL d   1      -0.585   1.103   0.782  0.00  0.00     0.020 A 
ATOM      2  C1  UNL d   1       0.003   2.175   1.453  0.00  0.00     0.020 A 
ATOM      3  C2  UNL d   1       0.290   3.356   0.765  0.00  0.00     0.034 A 
ATOM      4  C3  UNL d   1      -0.010   3.469  -0.597  0.00  0.00     0.017 A 
ATOM      5  C4  UNL d   1      -0.599   2.392  -1.270  0.00  0.00     0.017 A 
ATOM      6  C5  UNL d   1      -0.885   1.212  -0.577  0.00  0.00     0.034 A 
ATOM      7 Cl   UNL d   1      -0.998   2.456  -2.950  0.00  0.00    -0.070 Cl
ATOM      8 Cl1  UNL d   1       0.373   4.959  -1.384  0.00  0.00    -0.070 Cl
ENDROOT
TORSDOF 0
ENDMDL
