MODEL 1
REMARK minimizedAffinity 4.75137329
REMARK minimizedRMSD -1
REMARK  0 active torsions:
REMARK  status: ('A' for Active; 'I' for Inactive)
ROOT
ATOM      1  C   UNL d   1       4.807  -2.594  -1.192  0.00  0.00     0.020 A 
ATOM      2  C1  UNL d   1       4.263  -3.041  -2.396  0.00  0.00     0.020 A 
ATOM      3  C2  UNL d   1       3.201  -3.947  -2.388  0.00  0.00     0.034 A 
ATOM      4  C3  UNL d   1       2.678  -4.409  -1.175  0.00  0.00     0.017 A 
ATOM      5  C4  UNL d   1       3.225  -3.960   0.033  0.00  0.00     0.017 A 
ATOM      6  C5  UNL d   1       4.289  -3.053   0.020  0.00  0.00     0.034 A 
ATOM      7 Cl   UNL d   1       2.634  -4.485   1.570  0.00  0.00    -0.070 Cl
ATOM      8 Cl1  UNL d   1       1.364  -5.529  -1.240  0.00  0.00    -0.070 Cl
ENDROOT
TORSDOF 0
ENDMDL
