MODEL 1
REMARK minimizedAffinity 0.699267566
REMARK minimizedRMSD -1
REMARK  0 active torsions:
REMARK  status: ('A' for Active; 'I' for Inactive)
ROOT
ATOM      1  C   UNL d   1       4.545  -5.979  -1.829  0.00  0.00     0.020 A 
ATOM      2  C1  UNL d   1       4.270  -5.866  -3.192  0.00  0.00     0.020 A 
ATOM      3  C2  UNL d   1       3.987  -4.615  -3.745  0.00  0.00     0.034 A 
ATOM      4  C3  UNL d   1       3.978  -3.473  -2.936  0.00  0.00     0.017 A 
ATOM      5  C4  UNL d   1       4.253  -3.588  -1.568  0.00  0.00     0.017 A 
ATOM      6  C5  UNL d   1       4.536  -4.843  -1.020  0.00  0.00     0.034 A 
ATOM      7 Cl   UNL d   1       4.260  -2.225  -0.506  0.00  0.00    -0.070 Cl
ATOM      8 Cl1  UNL d   1       3.620  -1.959  -3.687  0.00  0.00    -0.070 Cl
ENDROOT
TORSDOF 0
ENDMDL
