MODEL 1
REMARK minimizedAffinity 0.533412397
REMARK minimizedRMSD -1
REMARK  0 active torsions:
REMARK  status: ('A' for Active; 'I' for Inactive)
ROOT
ATOM      1  C   UNL d   1       0.568   1.831  -2.103  0.00  0.00    -0.002 A 
ATOM      2  C1  UNL d   1      -0.795   2.072  -2.213  0.00  0.00     0.010 A 
ATOM      3  C2  UNL d   1      -1.683   1.582  -1.254  0.00  0.00     0.041 A 
ATOM      4  C3  UNL d   1      -1.174   0.840  -0.170  0.00  0.00    -0.075 A 
ATOM      5  S   UNL d   1      -2.072   0.142   1.126  0.00  0.00     0.015 SA
ATOM      6  C4  UNL d   1      -0.669  -0.491   1.857  0.00  0.00     0.022 A 
ATOM      7  C5  UNL d   1       0.466  -0.188   1.143  0.00  0.00     0.026 A 
ATOM      8  C6  UNL d   1       0.194   0.585  -0.036  0.00  0.00    -0.082 A 
ATOM      9  C7  UNL d   1       1.069   1.095  -1.026  0.00  0.00     0.045 A 
ENDROOT
TORSDOF 0
ENDMDL
