MODEL 1
REMARK minimizedAffinity 0.625286222
REMARK minimizedRMSD -1
REMARK  0 active torsions:
REMARK  status: ('A' for Active; 'I' for Inactive)
ROOT
ATOM      1  C   UNL d   1      -0.341  -0.341   2.394  0.00  0.00    -0.002 A 
ATOM      2  C1  UNL d   1       0.670  -1.191   1.969  0.00  0.00     0.010 A 
ATOM      3  C2  UNL d   1       0.973  -1.312   0.611  0.00  0.00     0.041 A 
ATOM      4  C3  UNL d   1       0.237  -0.555  -0.321  0.00  0.00    -0.075 A 
ATOM      5  S   UNL d   1       0.432  -0.541  -2.034  0.00  0.00     0.015 SA
ATOM      6  C4  UNL d   1      -0.822   0.595  -2.242  0.00  0.00     0.022 A 
ATOM      7  C5  UNL d   1      -1.387   0.965  -1.045  0.00  0.00     0.026 A 
ATOM      8  C6  UNL d   1      -0.786   0.308   0.082  0.00  0.00    -0.082 A 
ATOM      9  C7  UNL d   1      -1.069   0.408   1.466  0.00  0.00     0.045 A 
ENDROOT
TORSDOF 0
ENDMDL
