MODEL 1
REMARK minimizedAffinity 0.747750759
REMARK minimizedRMSD -1
REMARK  0 active torsions:
REMARK  status: ('A' for Active; 'I' for Inactive)
ROOT
ATOM      1  C   UNL d   1       1.217  -1.024   3.081  0.00  0.00    -0.002 A 
ATOM      2  C1  UNL d   1      -0.150  -1.238   2.974  0.00  0.00     0.010 A 
ATOM      3  C2  UNL d   1      -0.861  -0.752   1.875  0.00  0.00     0.041 A 
ATOM      4  C3  UNL d   1      -0.168  -0.044   0.874  0.00  0.00    -0.075 A 
ATOM      5  S   UNL d   1      -0.831   0.642  -0.563  0.00  0.00     0.015 SA
ATOM      6  C4  UNL d   1       0.686   1.233  -1.069  0.00  0.00     0.022 A 
ATOM      7  C5  UNL d   1       1.684   0.924  -0.176  0.00  0.00     0.026 A 
ATOM      8  C6  UNL d   1       1.209   0.183   0.958  0.00  0.00    -0.082 A 
ATOM      9  C7  UNL d   1       1.901  -0.321   2.086  0.00  0.00     0.045 A 
ENDROOT
TORSDOF 0
ENDMDL
