MODEL 1
REMARK minimizedAffinity -2.98267841
REMARK minimizedRMSD -1
REMARK  0 active torsions:
REMARK  status: ('A' for Active; 'I' for Inactive)
ROOT
ATOM      1  C   UNL d   1       0.256  -0.832  -0.546  0.00  0.00    -0.002 A 
ATOM      2  C1  UNL d   1       0.046  -0.000   0.544  0.00  0.00     0.010 A 
ATOM      3  C2  UNL d   1      -0.243   1.353   0.360  0.00  0.00     0.041 A 
ATOM      4  C3  UNL d   1      -0.322   1.861  -0.952  0.00  0.00    -0.075 A 
ATOM      5  S   UNL d   1      -0.665   3.484  -1.420  0.00  0.00     0.015 SA
ATOM      6  C4  UNL d   1      -0.543   3.111  -3.078  0.00  0.00     0.022 A 
ATOM      7  C5  UNL d   1      -0.248   1.785  -3.288  0.00  0.00     0.026 A 
ATOM      8  C6  UNL d   1      -0.116   1.042  -2.066  0.00  0.00    -0.082 A 
ATOM      9  C7  UNL d   1       0.177  -0.325  -1.846  0.00  0.00     0.045 A 
ENDROOT
TORSDOF 0
ENDMDL
