MODEL 1
REMARK minimizedAffinity 5.57667303
REMARK minimizedRMSD -1
REMARK  2 active torsions:
REMARK  status: ('A' for Active; 'I' for Inactive)
REMARK    1  A    between atoms: C2'_3  and  C1'_4 
REMARK    2  A    between atoms: C1'_4  and  C1_5 
ROOT
ATOM      1  C1  I4B d   1       5.609   5.206  -3.761  0.00  0.00    -0.075 A 
ATOM      2  C2  I4B d   1       5.934   3.875  -3.841  0.00  0.00     0.003 A 
ATOM      3  C3  I4B d   1       5.563   3.117  -4.978  0.00  0.00     0.002 A 
ATOM      4  C4  I4B d   1       4.828   3.714  -5.982  0.00  0.00    -0.004 A 
ATOM      5  C5  I4B d   1       4.518   5.070  -5.910  0.00  0.00     0.002 A 
ATOM      6  C6  I4B d   1       4.922   5.824  -4.798  0.00  0.00     0.003 A 
ENDROOT
BRANCH   1   7
ATOM      7  C1' I4B d   1       5.988   5.968  -2.531  0.00  0.00     0.060 C 
BRANCH   7   8
ATOM      8  C2' I4B d   1       4.785   5.999  -1.611  0.00  0.00    -0.013 C 
ATOM      9  C4' I4B d   1       3.515   5.706  -2.365  0.00  0.00     0.013 C 
ATOM     10  C3' I4B d   1       5.010   4.995  -0.520  0.00  0.00     0.013 C 
ENDBRANCH   7   8
ENDBRANCH   1   7
TORSDOF 2
ENDMDL
