MODEL 1
REMARK minimizedAffinity 4.38498497
REMARK minimizedRMSD -1
REMARK  2 active torsions:
REMARK  status: ('A' for Active; 'I' for Inactive)
REMARK    1  A    between atoms: C2'_3  and  C1'_4 
REMARK    2  A    between atoms: C1'_4  and  C1_5 
ROOT
ATOM      1  C1  I4B d   1       3.761   4.869  -3.601  0.00  0.00    -0.075 A 
ATOM      2  C2  I4B d   1       4.820   5.741  -3.582  0.00  0.00     0.003 A 
ATOM      3  C3  I4B d   1       5.950   5.509  -4.403  0.00  0.00     0.002 A 
ATOM      4  C4  I4B d   1       6.000   4.373  -5.185  0.00  0.00    -0.004 A 
ATOM      5  C5  I4B d   1       4.915   3.501  -5.220  0.00  0.00     0.002 A 
ATOM      6  C6  I4B d   1       3.783   3.756  -4.432  0.00  0.00     0.003 A 
ENDROOT
BRANCH   1   7
ATOM      7  C1' I4B d   1       2.598   5.127  -2.696  0.00  0.00     0.060 C 
BRANCH   7   8
ATOM      8  C2' I4B d   1       2.986   4.686  -1.299  0.00  0.00    -0.013 C 
ATOM      9  C4' I4B d   1       4.127   5.510  -0.765  0.00  0.00     0.013 C 
ATOM     10  C3' I4B d   1       1.775   4.806  -0.423  0.00  0.00     0.013 C 
ENDBRANCH   7   8
ENDBRANCH   1   7
TORSDOF 2
ENDMDL
