MODEL 1
REMARK minimizedAffinity 6.3685174
REMARK minimizedRMSD -1
REMARK  2 active torsions:
REMARK  status: ('A' for Active; 'I' for Inactive)
REMARK    1  A    between atoms: C2'_3  and  C1'_4 
REMARK    2  A    between atoms: C1'_4  and  C1_5 
ROOT
ATOM      1  C1  I4B d   1       1.752  -1.908  -2.834  0.00  0.00    -0.075 A 
ATOM      2  C2  I4B d   1       1.632  -2.569  -1.637  0.00  0.00     0.003 A 
ATOM      3  C3  I4B d   1       0.393  -2.586  -0.953  0.00  0.00     0.002 A 
ATOM      4  C4  I4B d   1      -0.680  -1.891  -1.473  0.00  0.00    -0.004 A 
ATOM      5  C5  I4B d   1      -0.564  -1.241  -2.698  0.00  0.00     0.002 A 
ATOM      6  C6  I4B d   1       0.656  -1.259  -3.390  0.00  0.00     0.003 A 
ENDROOT
BRANCH   1   7
ATOM      7  C1' I4B d   1       3.084  -1.882  -3.514  0.00  0.00     0.060 C 
BRANCH   7   8
ATOM      8  C2' I4B d   1       3.171  -3.096  -4.416  0.00  0.00    -0.013 C 
ATOM      9  C4' I4B d   1       3.209  -2.695  -5.867  0.00  0.00     0.013 C 
ATOM     10  C3' I4B d   1       4.399  -3.869  -4.036  0.00  0.00     0.013 C 
ENDBRANCH   7   8
ENDBRANCH   1   7
TORSDOF 2
ENDMDL
