MODEL 1
REMARK minimizedAffinity 24.008934
REMARK minimizedRMSD -1
REMARK  2 active torsions:
REMARK  status: ('A' for Active; 'I' for Inactive)
REMARK    1  A    between atoms: C2'_3  and  C1'_4 
REMARK    2  A    between atoms: C1'_4  and  C1_5 
ROOT
ATOM      1  C1  I4B d   1      -3.247  -4.736  -5.065  0.00  0.00    -0.075 A 
ATOM      2  C2  I4B d   1      -3.712  -5.795  -5.805  0.00  0.00     0.003 A 
ATOM      3  C3  I4B d   1      -5.105  -5.998  -5.962  0.00  0.00     0.002 A 
ATOM      4  C4  I4B d   1      -5.991  -5.153  -5.326  0.00  0.00    -0.004 A 
ATOM      5  C5  I4B d   1      -5.518  -4.066  -4.595  0.00  0.00     0.002 A 
ATOM      6  C6  I4B d   1      -4.138  -3.849  -4.474  0.00  0.00     0.003 A 
ENDROOT
BRANCH   1   7
ATOM      7  C1' I4B d   1      -1.771  -4.571  -4.892  0.00  0.00     0.060 C 
BRANCH   7   8
ATOM      8  C2' I4B d   1      -1.465  -3.087  -4.879  0.00  0.00    -0.013 C 
ATOM      9  C4' I4B d   1      -0.925  -2.654  -3.541  0.00  0.00     0.013 C 
ATOM     10  C3' I4B d   1      -0.483  -2.806  -5.976  0.00  0.00     0.013 C 
ENDBRANCH   7   8
ENDBRANCH   1   7
TORSDOF 2
ENDMDL
