MODEL 1
REMARK minimizedAffinity 20.0020142
REMARK minimizedRMSD -1
REMARK  2 active torsions:
REMARK  status: ('A' for Active; 'I' for Inactive)
REMARK    1  A    between atoms: C2'_3  and  C1'_4 
REMARK    2  A    between atoms: C1'_4  and  C1_5 
ROOT
ATOM      1  C1  I4B d   1      -2.964  -3.729  -5.249  0.00  0.00    -0.075 A 
ATOM      2  C2  I4B d   1      -2.826  -4.879  -5.985  0.00  0.00     0.003 A 
ATOM      3  C3  I4B d   1      -3.861  -5.844  -6.000  0.00  0.00     0.002 A 
ATOM      4  C4  I4B d   1      -4.988  -5.645  -5.229  0.00  0.00    -0.004 A 
ATOM      5  C5  I4B d   1      -5.137  -4.468  -4.501  0.00  0.00     0.002 A 
ATOM      6  C6  I4B d   1      -4.124  -3.497  -4.520  0.00  0.00     0.003 A 
ENDROOT
BRANCH   1   7
ATOM      7  C1' I4B d   1      -1.838  -2.745  -5.230  0.00  0.00     0.060 C 
BRANCH   7   8
ATOM      8  C2' I4B d   1      -1.379  -2.588  -3.794  0.00  0.00    -0.013 C 
ATOM      9  C4' I4B d   1       0.012  -3.135  -3.604  0.00  0.00     0.013 C 
ATOM     10  C3' I4B d   1      -1.440  -1.131  -3.445  0.00  0.00     0.013 C 
ENDBRANCH   7   8
ENDBRANCH   1   7
TORSDOF 2
ENDMDL
