MODEL 1
REMARK minimizedAffinity 17.2767448
REMARK minimizedRMSD -1
REMARK  2 active torsions:
REMARK  status: ('A' for Active; 'I' for Inactive)
REMARK    1  A    between atoms: C2'_3  and  C1'_4 
REMARK    2  A    between atoms: C1'_4  and  C1_5 
ROOT
ATOM      1  C1  I4B d   1       2.708   4.144   0.351  0.00  0.00    -0.075 A 
ATOM      2  C2  I4B d   1       1.883   3.215  -0.233  0.00  0.00     0.003 A 
ATOM      3  C3  I4B d   1       0.518   3.143   0.135  0.00  0.00     0.002 A 
ATOM      4  C4  I4B d   1       0.034   3.978   1.121  0.00  0.00    -0.004 A 
ATOM      5  C5  I4B d   1       0.866   4.935   1.696  0.00  0.00     0.002 A 
ATOM      6  C6  I4B d   1       2.209   5.027   1.300  0.00  0.00     0.003 A 
ENDROOT
BRANCH   1   7
ATOM      7  C1' I4B d   1       4.152   4.171  -0.038  0.00  0.00     0.060 C 
BRANCH   7   8
ATOM      8  C2' I4B d   1       4.502   5.591  -0.434  0.00  0.00    -0.013 C 
ATOM      9  C4' I4B d   1       5.947   5.702  -0.844  0.00  0.00     0.013 C 
ATOM     10  C3' I4B d   1       3.590   5.998  -1.553  0.00  0.00     0.013 C 
ENDBRANCH   7   8
ENDBRANCH   1   7
TORSDOF 2
ENDMDL
