MODEL 1
REMARK minimizedAffinity 16.9549847
REMARK minimizedRMSD -1
REMARK  2 active torsions:
REMARK  status: ('A' for Active; 'I' for Inactive)
REMARK    1  A    between atoms: C2'_3  and  C1'_4 
REMARK    2  A    between atoms: C1'_4  and  C1_5 
ROOT
ATOM      1  C1  I4B d   1       2.568  -2.476  -3.839  0.00  0.00    -0.075 A 
ATOM      2  C2  I4B d   1       2.327  -1.371  -4.618  0.00  0.00     0.003 A 
ATOM      3  C3  I4B d   1       3.375  -0.469  -4.920  0.00  0.00     0.002 A 
ATOM      4  C4  I4B d   1       4.630  -0.681  -4.385  0.00  0.00    -0.004 A 
ATOM      5  C5  I4B d   1       4.878  -1.813  -3.614  0.00  0.00     0.002 A 
ATOM      6  C6  I4B d   1       3.844  -2.723  -3.350  0.00  0.00     0.003 A 
ENDROOT
BRANCH   1   7
ATOM      7  C1' I4B d   1       1.431  -3.390  -3.512  0.00  0.00     0.060 C 
BRANCH   7   8
ATOM      8  C2' I4B d   1       0.905  -3.010  -2.143  0.00  0.00    -0.013 C 
ATOM      9  C4' I4B d   1      -0.307  -2.122  -2.251  0.00  0.00     0.013 C 
ATOM     10  C3' I4B d   1       0.585  -4.275  -1.403  0.00  0.00     0.013 C 
ENDBRANCH   7   8
ENDBRANCH   1   7
TORSDOF 2
ENDMDL
