MODEL 1
REMARK minimizedAffinity 7.30128002
REMARK minimizedRMSD -1
REMARK  2 active torsions:
REMARK  status: ('A' for Active; 'I' for Inactive)
REMARK    1  A    between atoms: C2'_3  and  C1'_4 
REMARK    2  A    between atoms: C1'_4  and  C1_5 
ROOT
ATOM      1  C1  I4B d   1      -1.347  -1.147  -0.542  0.00  0.00    -0.075 A 
ATOM      2  C2  I4B d   1      -0.323  -1.943  -0.094  0.00  0.00     0.003 A 
ATOM      3  C3  I4B d   1       0.275  -2.890  -0.961  0.00  0.00     0.002 A 
ATOM      4  C4  I4B d   1      -0.212  -3.041  -2.243  0.00  0.00    -0.004 A 
ATOM      5  C5  I4B d   1      -1.235  -2.216  -2.703  0.00  0.00     0.002 A 
ATOM      6  C6  I4B d   1      -1.798  -1.255  -1.851  0.00  0.00     0.003 A 
ENDROOT
BRANCH   1   7
ATOM      7  C1' I4B d   1      -1.978  -0.181   0.410  0.00  0.00     0.060 C 
BRANCH   7   8
ATOM      8  C2' I4B d   1      -1.729   1.219  -0.113  0.00  0.00    -0.013 C 
ATOM      9  C4' I4B d   1      -2.726   2.197   0.451  0.00  0.00     0.013 C 
ATOM     10  C3' I4B d   1      -0.327   1.607   0.250  0.00  0.00     0.013 C 
ENDBRANCH   7   8
ENDBRANCH   1   7
TORSDOF 2
ENDMDL
