MODEL 1
REMARK minimizedAffinity 11.2092218
REMARK minimizedRMSD -1
REMARK  2 active torsions:
REMARK  status: ('A' for Active; 'I' for Inactive)
REMARK    1  A    between atoms: C2'_3  and  C1'_4 
REMARK    2  A    between atoms: C1'_4  and  C1_5 
ROOT
ATOM      1  C1  I4B d   1       2.988   4.373  -0.411  0.00  0.00    -0.075 A 
ATOM      2  C2  I4B d   1       2.285   4.124   0.741  0.00  0.00     0.003 A 
ATOM      3  C3  I4B d   1       0.899   4.406   0.806  0.00  0.00     0.002 A 
ATOM      4  C4  I4B d   1       0.271   4.980  -0.280  0.00  0.00    -0.004 A 
ATOM      5  C5  I4B d   1       0.980   5.210  -1.456  0.00  0.00     0.002 A 
ATOM      6  C6  I4B d   1       2.344   4.894  -1.526  0.00  0.00     0.003 A 
ENDROOT
BRANCH   1   7
ATOM      7  C1' I4B d   1       4.457   4.094  -0.434  0.00  0.00     0.060 C 
BRANCH   7   8
ATOM      8  C2' I4B d   1       5.154   5.307  -1.016  0.00  0.00    -0.013 C 
ATOM      9  C4' I4B d   1       6.000   5.999   0.020  0.00  0.00     0.013 C 
ATOM     10  C3' I4B d   1       5.986   4.851  -2.177  0.00  0.00     0.013 C 
ENDBRANCH   7   8
ENDBRANCH   1   7
TORSDOF 2
ENDMDL
