MODEL 1
REMARK minimizedAffinity 9.82317066
REMARK minimizedRMSD -1
REMARK  2 active torsions:
REMARK  status: ('A' for Active; 'I' for Inactive)
REMARK    1  A    between atoms: C2'_3  and  C1'_4 
REMARK    2  A    between atoms: C1'_4  and  C1_5 
ROOT
ATOM      1  C1  I4B d   1       0.150  -4.103  -2.550  0.00  0.00    -0.075 A 
ATOM      2  C2  I4B d   1       0.288  -4.439  -1.227  0.00  0.00     0.003 A 
ATOM      3  C3  I4B d   1      -0.129  -3.538  -0.216  0.00  0.00     0.002 A 
ATOM      4  C4  I4B d   1      -0.627  -2.302  -0.571  0.00  0.00    -0.004 A 
ATOM      5  C5  I4B d   1      -0.787  -1.972  -1.914  0.00  0.00     0.002 A 
ATOM      6  C6  I4B d   1      -0.408  -2.883  -2.910  0.00  0.00     0.003 A 
ENDROOT
BRANCH   1   7
ATOM      7  C1' I4B d   1       0.631  -5.064  -3.591  0.00  0.00     0.060 C 
BRANCH   7   8
ATOM      8  C2' I4B d   1       1.323  -4.267  -4.679  0.00  0.00    -0.013 C 
ATOM      9  C4' I4B d   1       2.813  -4.477  -4.645  0.00  0.00     0.013 C 
ATOM     10  C3' I4B d   1       0.746  -4.686  -5.998  0.00  0.00     0.013 C 
ENDBRANCH   7   8
ENDBRANCH   1   7
TORSDOF 2
ENDMDL
