MODEL 1
REMARK minimizedAffinity 4.46251726
REMARK minimizedRMSD -1
REMARK  2 active torsions:
REMARK  status: ('A' for Active; 'I' for Inactive)
REMARK    1  A    between atoms: C2'_3  and  C1'_4 
REMARK    2  A    between atoms: C1'_4  and  C1_5 
ROOT
ATOM      1  C1  I4B d   1       1.299  -2.736  -3.794  0.00  0.00    -0.075 A 
ATOM      2  C2  I4B d   1       0.598  -2.928  -4.958  0.00  0.00     0.003 A 
ATOM      3  C3  I4B d   1      -0.788  -2.644  -5.011  0.00  0.00     0.002 A 
ATOM      4  C4  I4B d   1      -1.439  -2.220  -3.871  0.00  0.00    -0.004 A 
ATOM      5  C5  I4B d   1      -0.722  -2.003  -2.698  0.00  0.00     0.002 A 
ATOM      6  C6  I4B d   1       0.658  -2.250  -2.662  0.00  0.00     0.003 A 
ENDROOT
BRANCH   1   7
ATOM      7  C1' I4B d   1       2.755  -3.077  -3.765  0.00  0.00     0.060 C 
BRANCH   7   8
ATOM      8  C2' I4B d   1       3.499  -1.898  -3.172  0.00  0.00    -0.013 C 
ATOM      9  C4' I4B d   1       4.238  -2.293  -1.920  0.00  0.00     0.013 C 
ATOM     10  C3' I4B d   1       4.442  -1.374  -4.214  0.00  0.00     0.013 C 
ENDBRANCH   7   8
ENDBRANCH   1   7
TORSDOF 2
ENDMDL
