MODEL 1
REMARK minimizedAffinity 11.8098621
REMARK minimizedRMSD -1
REMARK  2 active torsions:
REMARK  status: ('A' for Active; 'I' for Inactive)
REMARK    1  A    between atoms: C2'_3  and  C1'_4 
REMARK    2  A    between atoms: C1'_4  and  C1_5 
ROOT
ATOM      1  C1  I4B d   1       0.404  -3.296  -2.539  0.00  0.00    -0.075 A 
ATOM      2  C2  I4B d   1       0.527  -3.088  -1.188  0.00  0.00     0.003 A 
ATOM      3  C3  I4B d   1      -0.387  -2.245  -0.511  0.00  0.00     0.002 A 
ATOM      4  C4  I4B d   1      -1.372  -1.596  -1.227  0.00  0.00    -0.004 A 
ATOM      5  C5  I4B d   1      -1.509  -1.826  -2.593  0.00  0.00     0.002 A 
ATOM      6  C6  I4B d   1      -0.623  -2.692  -3.251  0.00  0.00     0.003 A 
ENDROOT
BRANCH   1   7
ATOM      7  C1' I4B d   1       1.407  -4.166  -3.228  0.00  0.00     0.060 C 
BRANCH   7   8
ATOM      8  C2' I4B d   1       2.248  -3.285  -4.129  0.00  0.00    -0.013 C 
ATOM      9  C4' I4B d   1       2.927  -2.193  -3.345  0.00  0.00     0.013 C 
ATOM     10  C3' I4B d   1       3.251  -4.157  -4.824  0.00  0.00     0.013 C 
ENDBRANCH   7   8
ENDBRANCH   1   7
TORSDOF 2
ENDMDL
