MODEL 1
REMARK minimizedAffinity -2.98429036
REMARK minimizedRMSD -1
REMARK  2 active torsions:
REMARK  status: ('A' for Active; 'I' for Inactive)
REMARK    1  A    between atoms: C2'_3  and  C1'_4 
REMARK    2  A    between atoms: C1'_4  and  C1_5 
ROOT
ATOM      1  C1  I4B d   1       0.432  -0.653  -0.387  0.00  0.00    -0.075 A 
ATOM      2  C2  I4B d   1       0.074   0.504  -1.032  0.00  0.00     0.003 A 
ATOM      3  C3  I4B d   1      -0.714   1.476  -0.368  0.00  0.00     0.002 A 
ATOM      4  C4  I4B d   1      -1.161   1.228   0.913  0.00  0.00    -0.004 A 
ATOM      5  C5  I4B d   1      -0.779   0.064   1.574  0.00  0.00     0.002 A 
ATOM      6  C6  I4B d   1       0.033  -0.877   0.924  0.00  0.00     0.003 A 
ENDROOT
BRANCH   1   7
ATOM      7  C1' I4B d   1       1.237  -1.673  -1.129  0.00  0.00     0.060 C 
BRANCH   7   8
ATOM      8  C2' I4B d   1       0.275  -2.659  -1.760  0.00  0.00    -0.013 C 
ATOM      9  C4' I4B d   1       0.138  -2.417  -3.240  0.00  0.00     0.013 C 
ATOM     10  C3' I4B d   1       0.782  -4.042  -1.482  0.00  0.00     0.013 C 
ENDBRANCH   7   8
ENDBRANCH   1   7
TORSDOF 2
ENDMDL
