MODEL 1
REMARK minimizedAffinity -2.99371839
REMARK minimizedRMSD -1
REMARK  2 active torsions:
REMARK  status: ('A' for Active; 'I' for Inactive)
REMARK    1  A    between atoms: C2'_3  and  C1'_4 
REMARK    2  A    between atoms: C1'_4  and  C1_5 
ROOT
ATOM      1  C1  I4B d   1      -0.313   0.044  -0.179  0.00  0.00    -0.075 A 
ATOM      2  C2  I4B d   1      -0.168  -0.045   1.183  0.00  0.00     0.003 A 
ATOM      3  C3  I4B d   1      -0.945   0.775   2.038  0.00  0.00     0.002 A 
ATOM      4  C4  I4B d   1      -1.811   1.699   1.490  0.00  0.00    -0.004 A 
ATOM      5  C5  I4B d   1      -1.973   1.772   0.109  0.00  0.00     0.002 A 
ATOM      6  C6  I4B d   1      -1.228   0.930  -0.730  0.00  0.00     0.003 A 
ENDROOT
BRANCH   1   7
ATOM      7  C1' I4B d   1       0.547  -0.814  -1.052  0.00  0.00     0.060 C 
BRANCH   7   8
ATOM      8  C2' I4B d   1      -0.345  -1.836  -1.726  0.00  0.00    -0.013 C 
ATOM      9  C4' I4B d   1      -0.384  -1.628  -3.217  0.00  0.00     0.013 C 
ATOM     10  C3' I4B d   1       0.173  -3.201  -1.383  0.00  0.00     0.013 C 
ENDBRANCH   7   8
ENDBRANCH   1   7
TORSDOF 2
ENDMDL
