MODEL 1
REMARK minimizedAffinity -0.731960893
REMARK minimizedRMSD -1
REMARK  2 active torsions:
REMARK  status: ('A' for Active; 'I' for Inactive)
REMARK    1  A    between atoms: C2'_3  and  C1'_4 
REMARK    2  A    between atoms: C1'_4  and  C1_5 
ROOT
ATOM      1  C1  I4B d   1      -0.623   0.361   1.132  0.00  0.00    -0.075 A 
ATOM      2  C2  I4B d   1      -0.341   1.032   2.296  0.00  0.00     0.003 A 
ATOM      3  C3  I4B d   1      -1.161   2.109   2.713  0.00  0.00     0.002 A 
ATOM      4  C4  I4B d   1      -2.214   2.510   1.917  0.00  0.00    -0.004 A 
ATOM      5  C5  I4B d   1      -2.512   1.813   0.749  0.00  0.00     0.002 A 
ATOM      6  C6  I4B d   1      -1.719   0.724   0.360  0.00  0.00     0.003 A 
ENDROOT
BRANCH   1   7
ATOM      7  C1' I4B d   1       0.283  -0.750   0.704  0.00  0.00     0.060 C 
BRANCH   7   8
ATOM      8  C2' I4B d   1       0.736  -0.463  -0.713  0.00  0.00    -0.013 C 
ATOM      9  C4' I4B d   1      -0.018  -1.307  -1.707  0.00  0.00     0.013 C 
ATOM     10  C3' I4B d   1       0.532   0.998  -0.977  0.00  0.00     0.013 C 
ENDBRANCH   7   8
ENDBRANCH   1   7
TORSDOF 2
ENDMDL
