MODEL 1
REMARK minimizedAffinity -2.06747103
REMARK minimizedRMSD -1
REMARK  2 active torsions:
REMARK  status: ('A' for Active; 'I' for Inactive)
REMARK    1  A    between atoms: C2'_3  and  C1'_4 
REMARK    2  A    between atoms: C1'_4  and  C1_5 
ROOT
ATOM      1  C1  I4B d   1       0.369  -0.375  -0.304  0.00  0.00    -0.075 A 
ATOM      2  C2  I4B d   1       1.254   0.492  -0.895  0.00  0.00     0.003 A 
ATOM      3  C3  I4B d   1       0.845   1.802  -1.242  0.00  0.00     0.002 A 
ATOM      4  C4  I4B d   1      -0.464   2.184  -1.027  0.00  0.00    -0.004 A 
ATOM      5  C5  I4B d   1      -1.354   1.312  -0.407  0.00  0.00     0.002 A 
ATOM      6  C6  I4B d   1      -0.932   0.028  -0.032  0.00  0.00     0.003 A 
ENDROOT
BRANCH   1   7
ATOM      7  C1' I4B d   1       0.826  -1.763   0.019  0.00  0.00     0.060 C 
BRANCH   7   8
ATOM      8  C2' I4B d   1       1.461  -2.347  -1.227  0.00  0.00    -0.013 C 
ATOM      9  C4' I4B d   1       2.651  -3.203  -0.882  0.00  0.00     0.013 C 
ATOM     10  C3' I4B d   1       0.415  -3.140  -1.952  0.00  0.00     0.013 C 
ENDBRANCH   7   8
ENDBRANCH   1   7
TORSDOF 2
ENDMDL
