MODEL 1
REMARK minimizedAffinity -3.91538477
REMARK minimizedRMSD -1
REMARK  2 active torsions:
REMARK  status: ('A' for Active; 'I' for Inactive)
REMARK    1  A    between atoms: C2'_3  and  C1'_4 
REMARK    2  A    between atoms: C1'_4  and  C1_5 
ROOT
ATOM      1  C1  I4B d   1       0.230   0.374  -0.165  0.00  0.00    -0.075 A 
ATOM      2  C2  I4B d   1      -0.261   0.054   1.076  0.00  0.00     0.003 A 
ATOM      3  C3  I4B d   1      -1.113   0.954   1.760  0.00  0.00     0.002 A 
ATOM      4  C4  I4B d   1      -1.406   2.177   1.191  0.00  0.00    -0.004 A 
ATOM      5  C5  I4B d   1      -0.926   2.491  -0.077  0.00  0.00     0.002 A 
ATOM      6  C6  I4B d   1      -0.113   1.579  -0.765  0.00  0.00     0.003 A 
ENDROOT
BRANCH   1   7
ATOM      7  C1' I4B d   1       1.154  -0.586  -0.845  0.00  0.00     0.060 C 
BRANCH   7   8
ATOM      8  C2' I4B d   1       0.399  -1.880  -1.071  0.00  0.00    -0.013 C 
ATOM      9  C4' I4B d   1      -0.328  -1.863  -2.390  0.00  0.00     0.013 C 
ATOM     10  C3' I4B d   1       1.386  -3.008  -1.010  0.00  0.00     0.013 C 
ENDBRANCH   7   8
ENDBRANCH   1   7
TORSDOF 2
ENDMDL
