MODEL 1
REMARK minimizedAffinity -4.10277033
REMARK minimizedRMSD -1
REMARK  2 active torsions:
REMARK  status: ('A' for Active; 'I' for Inactive)
REMARK    1  A    between atoms: C2'_3  and  C1'_4 
REMARK    2  A    between atoms: C1'_4  and  C1_5 
ROOT
ATOM      1  C1  I4B d   1       0.786  -0.738  -0.815  0.00  0.00    -0.075 A 
ATOM      2  C2  I4B d   1       1.127   0.482  -1.344  0.00  0.00     0.003 A 
ATOM      3  C3  I4B d   1       0.692   1.676  -0.720  0.00  0.00     0.002 A 
ATOM      4  C4  I4B d   1      -0.120   1.604   0.394  0.00  0.00    -0.004 A 
ATOM      5  C5  I4B d   1      -0.446   0.367   0.942  0.00  0.00     0.002 A 
ATOM      6  C6  I4B d   1       0.020  -0.812   0.341  0.00  0.00     0.003 A 
ENDROOT
BRANCH   1   7
ATOM      7  C1' I4B d   1       1.235  -1.979  -1.518  0.00  0.00     0.060 C 
BRANCH   7   8
ATOM      8  C2' I4B d   1       0.044  -2.554  -2.257  0.00  0.00    -0.013 C 
ATOM      9  C4' I4B d   1       0.170  -2.341  -3.743  0.00  0.00     0.013 C 
ATOM     10  C3' I4B d   1      -0.046  -4.014  -1.925  0.00  0.00     0.013 C 
ENDBRANCH   7   8
ENDBRANCH   1   7
TORSDOF 2
ENDMDL
