MODEL 1
REMARK minimizedAffinity -4.83893967
REMARK minimizedRMSD -1
REMARK  2 active torsions:
REMARK  status: ('A' for Active; 'I' for Inactive)
REMARK    1  A    between atoms: C2'_3  and  C1'_4 
REMARK    2  A    between atoms: C1'_4  and  C1_5 
ROOT
ATOM      1  C1  I4B d   1       0.316   0.309  -0.519  0.00  0.00    -0.075 A 
ATOM      2  C2  I4B d   1      -0.089   1.405  -1.240  0.00  0.00     0.003 A 
ATOM      3  C3  I4B d   1      -1.099   2.258  -0.732  0.00  0.00     0.002 A 
ATOM      4  C4  I4B d   1      -1.708   1.951   0.467  0.00  0.00    -0.004 A 
ATOM      5  C5  I4B d   1      -1.280   0.853   1.208  0.00  0.00     0.002 A 
ATOM      6  C6  I4B d   1      -0.253   0.033   0.718  0.00  0.00     0.003 A 
ENDROOT
BRANCH   1   7
ATOM      7  C1' I4B d   1       1.362  -0.589  -1.100  0.00  0.00     0.060 C 
BRANCH   7   8
ATOM      8  C2' I4B d   1       0.747  -1.960  -1.290  0.00  0.00    -0.013 C 
ATOM      9  C4' I4B d   1       0.154  -2.105  -2.667  0.00  0.00     0.013 C 
ATOM     10  C3' I4B d   1       1.815  -2.985  -1.050  0.00  0.00     0.013 C 
ENDBRANCH   7   8
ENDBRANCH   1   7
TORSDOF 2
ENDMDL
