MODEL 1
REMARK minimizedAffinity 6.32253027
REMARK minimizedRMSD -1
REMARK  2 active torsions:
REMARK  status: ('A' for Active; 'I' for Inactive)
REMARK    1  A    between atoms: C2'_3  and  C1'_4 
REMARK    2  A    between atoms: C1'_4  and  C1_5 
ROOT
ATOM      1  C1  I4B d   1       0.594   1.047  -0.565  0.00  0.00    -0.075 A 
ATOM      2  C2  I4B d   1      -0.642   1.349  -0.050  0.00  0.00     0.003 A 
ATOM      3  C3  I4B d   1      -1.488   2.265  -0.721  0.00  0.00     0.002 A 
ATOM      4  C4  I4B d   1      -1.041   2.889  -1.868  0.00  0.00    -0.004 A 
ATOM      5  C5  I4B d   1       0.203   2.564  -2.400  0.00  0.00     0.002 A 
ATOM      6  C6  I4B d   1       1.021   1.628  -1.752  0.00  0.00     0.003 A 
ENDROOT
BRANCH   1   7
ATOM      7  C1' I4B d   1       1.476   0.100   0.187  0.00  0.00     0.060 C 
BRANCH   7   8
ATOM      8  C2' I4B d   1       0.606  -0.682   1.151  0.00  0.00    -0.013 C 
ATOM      9  C4' I4B d   1      -0.232  -1.701   0.424  0.00  0.00     0.013 C 
ATOM     10  C3' I4B d   1       1.504  -1.337   2.157  0.00  0.00     0.013 C 
ENDBRANCH   7   8
ENDBRANCH   1   7
TORSDOF 2
ENDMDL
