MODEL 1
REMARK minimizedAffinity -4.50185823
REMARK minimizedRMSD -1
REMARK  2 active torsions:
REMARK  status: ('A' for Active; 'I' for Inactive)
REMARK    1  A    between atoms: C2'_3  and  C1'_4 
REMARK    2  A    between atoms: C1'_4  and  C1_5 
ROOT
ATOM      1  C1  I4B d   1       0.409  -0.176  -0.073  0.00  0.00    -0.075 A 
ATOM      2  C2  I4B d   1      -0.245   0.944  -0.523  0.00  0.00     0.003 A 
ATOM      3  C3  I4B d   1      -1.116   1.655   0.338  0.00  0.00     0.002 A 
ATOM      4  C4  I4B d   1      -1.342   1.184   1.615  0.00  0.00    -0.004 A 
ATOM      5  C5  I4B d   1      -0.661   0.062   2.077  0.00  0.00     0.002 A 
ATOM      6  C6  I4B d   1       0.229  -0.616   1.232  0.00  0.00     0.003 A 
ENDROOT
BRANCH   1   7
ATOM      7  C1' I4B d   1       1.296  -0.922  -1.019  0.00  0.00     0.060 C 
BRANCH   7   8
ATOM      8  C2' I4B d   1       0.532  -2.129  -1.523  0.00  0.00    -0.013 C 
ATOM      9  C4' I4B d   1       0.196  -1.990  -2.984  0.00  0.00     0.013 C 
ATOM     10  C3' I4B d   1       1.372  -3.346  -1.274  0.00  0.00     0.013 C 
ENDBRANCH   7   8
ENDBRANCH   1   7
TORSDOF 2
ENDMDL
