MODEL 1
REMARK minimizedAffinity -2.5311687
REMARK minimizedRMSD -1
REMARK  2 active torsions:
REMARK  status: ('A' for Active; 'I' for Inactive)
REMARK    1  A    between atoms: C2'_3  and  C1'_4 
REMARK    2  A    between atoms: C1'_4  and  C1_5 
ROOT
ATOM      1  C1  I4B d   1       0.164  -0.652  -0.079  0.00  0.00    -0.075 A 
ATOM      2  C2  I4B d   1      -0.048   0.477  -0.829  0.00  0.00     0.003 A 
ATOM      3  C3  I4B d   1      -0.731   1.585  -0.272  0.00  0.00     0.002 A 
ATOM      4  C4  I4B d   1      -1.225   1.503   1.014  0.00  0.00    -0.004 A 
ATOM      5  C5  I4B d   1      -0.988   0.366   1.781  0.00  0.00     0.002 A 
ATOM      6  C6  I4B d   1      -0.279  -0.714   1.236  0.00  0.00     0.003 A 
ENDROOT
BRANCH   1   7
ATOM      7  C1' I4B d   1       0.860  -1.817  -0.709  0.00  0.00     0.060 C 
BRANCH   7   8
ATOM      8  C2' I4B d   1      -0.154  -2.568  -1.548  0.00  0.00    -0.013 C 
ATOM      9  C4' I4B d   1      -0.285  -1.959  -2.919  0.00  0.00     0.013 C 
ATOM     10  C3' I4B d   1       0.283  -4.000  -1.631  0.00  0.00     0.013 C 
ENDBRANCH   7   8
ENDBRANCH   1   7
TORSDOF 2
ENDMDL
