MODEL 1
REMARK minimizedAffinity -1.49818373
REMARK minimizedRMSD -1
REMARK  2 active torsions:
REMARK  status: ('A' for Active; 'I' for Inactive)
REMARK    1  A    between atoms: C2'_3  and  C1'_4 
REMARK    2  A    between atoms: C1'_4  and  C1_5 
ROOT
ATOM      1  C1  I4B d   1       0.375  -0.347  -0.293  0.00  0.00    -0.075 A 
ATOM      2  C2  I4B d   1      -0.480   0.725  -0.364  0.00  0.00     0.003 A 
ATOM      3  C3  I4B d   1      -1.131   1.195   0.802  0.00  0.00     0.002 A 
ATOM      4  C4  I4B d   1      -0.940   0.537   2.000  0.00  0.00    -0.004 A 
ATOM      5  C5  I4B d   1      -0.056  -0.535   2.074  0.00  0.00     0.002 A 
ATOM      6  C6  I4B d   1       0.615  -0.973   0.923  0.00  0.00     0.003 A 
ENDROOT
BRANCH   1   7
ATOM      7  C1' I4B d   1       1.020  -0.839  -1.550  0.00  0.00     0.060 C 
BRANCH   7   8
ATOM      8  C2' I4B d   1       0.737  -2.322  -1.670  0.00  0.00    -0.013 C 
ATOM      9  C4' I4B d   1       0.189  -2.664  -3.031  0.00  0.00     0.013 C 
ATOM     10  C3' I4B d   1       2.015  -3.061  -1.401  0.00  0.00     0.013 C 
ENDBRANCH   7   8
ENDBRANCH   1   7
TORSDOF 2
ENDMDL
