MODEL 1
REMARK minimizedAffinity -5.14049721
REMARK minimizedRMSD -1
REMARK  2 active torsions:
REMARK  status: ('A' for Active; 'I' for Inactive)
REMARK    1  A    between atoms: C2'_3  and  C1'_4 
REMARK    2  A    between atoms: C1'_4  and  C1_5 
ROOT
ATOM      1  C1  I4B d   1       0.015   0.021  -0.078  0.00  0.00    -0.075 A 
ATOM      2  C2  I4B d   1      -0.139  -0.386   1.223  0.00  0.00     0.003 A 
ATOM      3  C3  I4B d   1      -0.964   0.351   2.108  0.00  0.00     0.002 A 
ATOM      4  C4  I4B d   1      -1.572   1.508   1.665  0.00  0.00    -0.004 A 
ATOM      5  C5  I4B d   1      -1.433   1.906   0.339  0.00  0.00     0.002 A 
ATOM      6  C6  I4B d   1      -0.645   1.152  -0.542  0.00  0.00     0.003 A 
ENDROOT
BRANCH   1   7
ATOM      7  C1' I4B d   1       0.920  -0.761  -0.976  0.00  0.00     0.060 C 
BRANCH   7   8
ATOM      8  C2' I4B d   1       0.370  -2.169  -1.081  0.00  0.00    -0.013 C 
ATOM      9  C4' I4B d   1      -0.465  -2.337  -2.323  0.00  0.00     0.013 C 
ATOM     10  C3' I4B d   1       1.529  -3.121  -1.075  0.00  0.00     0.013 C 
ENDBRANCH   7   8
ENDBRANCH   1   7
TORSDOF 2
ENDMDL
