MODEL 1
REMARK minimizedAffinity -6.05986929
REMARK minimizedRMSD -1
REMARK  1 active torsions:
REMARK  status: ('A' for Active; 'I' for Inactive)
REMARK    1  A    between atoms: C1_2  and  C2_3 
ROOT
ATOM      1  C2  UNL d   1      -0.048  -0.040   0.297  0.00  0.00    -0.073 A 
ATOM      2  C3  UNL d   1      -0.781  -0.148   1.484  0.00  0.00    -0.002 A 
ATOM      3  C4  UNL d   1      -1.466   0.957   1.992  0.00  0.00     0.004 A 
ATOM      4  C5  UNL d   1      -1.432   2.176   1.315  0.00  0.00    -0.004 A 
ATOM      5  C6  UNL d   1      -0.715   2.300   0.120  0.00  0.00    -0.075 A 
ATOM      6  C7  UNL d   1      -0.666   3.605  -0.619  0.00  0.00     0.076 C 
ATOM      7  C8  UNL d   1      -0.027   1.187  -0.381  0.00  0.00     0.001 A 
ENDROOT
BRANCH   1   8
ATOM      8  C1  UNL d   1       0.689  -1.232  -0.258  0.00  0.00     0.053 C 
ATOM      9  C   UNL d   1      -0.049  -1.864  -1.428  0.00  0.00     0.018 C 
ENDBRANCH   1   8
TORSDOF 1
ENDMDL
