MODEL 1
REMARK minimizedAffinity -3.28874779
REMARK minimizedRMSD -1
REMARK  1 active torsions:
REMARK  status: ('A' for Active; 'I' for Inactive)
REMARK    1  A    between atoms: C1_2  and  C2_3 
ROOT
ATOM      1  C2  UNL d   1       0.403  -0.359  -0.840  0.00  0.00    -0.073 A 
ATOM      2  C3  UNL d   1       0.781   0.694  -1.680  0.00  0.00    -0.002 A 
ATOM      3  C4  UNL d   1       0.273   1.977  -1.475  0.00  0.00     0.004 A 
ATOM      4  C5  UNL d   1      -0.612   2.222  -0.425  0.00  0.00    -0.004 A 
ATOM      5  C6  UNL d   1      -0.992   1.185   0.433  0.00  0.00    -0.075 A 
ATOM      6  C7  UNL d   1      -1.945   1.432   1.566  0.00  0.00     0.076 C 
ATOM      7  C8  UNL d   1      -0.480  -0.101   0.219  0.00  0.00     0.001 A 
ENDROOT
BRANCH   1   8
ATOM      8  C1  UNL d   1       0.954  -1.745  -1.054  0.00  0.00     0.053 C 
ATOM      9  C   UNL d   1       0.556  -2.315  -2.406  0.00  0.00     0.018 C 
ENDBRANCH   1   8
TORSDOF 1
ENDMDL
