MODEL 1
REMARK minimizedAffinity -4.36015797
REMARK minimizedRMSD -1
REMARK  1 active torsions:
REMARK  status: ('A' for Active; 'I' for Inactive)
REMARK    1  A    between atoms: C1_2  and  C2_3 
ROOT
ATOM      1  C2  UNL d   1      -0.028  -0.214   0.074  0.00  0.00    -0.073 A 
ATOM      2  C3  UNL d   1       0.271  -0.734   1.338  0.00  0.00    -0.002 A 
ATOM      3  C4  UNL d   1      -0.245  -0.134   2.487  0.00  0.00     0.004 A 
ATOM      4  C5  UNL d   1      -1.070   0.987   2.384  0.00  0.00    -0.004 A 
ATOM      5  C6  UNL d   1      -1.389   1.514   1.129  0.00  0.00    -0.075 A 
ATOM      6  C7  UNL d   1      -2.273   2.720   1.000  0.00  0.00     0.076 C 
ATOM      7  C8  UNL d   1      -0.865   0.907  -0.021  0.00  0.00     0.001 A 
ENDROOT
BRANCH   1   8
ATOM      8  C1  UNL d   1       0.522  -0.863  -1.170  0.00  0.00     0.053 C 
ATOM      9  C   UNL d   1       0.873  -2.325  -0.943  0.00  0.00     0.018 C 
ENDBRANCH   1   8
TORSDOF 1
ENDMDL
