MODEL 1
REMARK minimizedAffinity -3.84170747
REMARK minimizedRMSD -1
REMARK  1 active torsions:
REMARK  status: ('A' for Active; 'I' for Inactive)
REMARK    1  A    between atoms: C1_2  and  C2_3 
ROOT
ATOM      1  C2  UNL d   1      -0.393   0.673   0.680  0.00  0.00    -0.073 A 
ATOM      2  C3  UNL d   1      -1.051   1.199   1.798  0.00  0.00    -0.002 A 
ATOM      3  C4  UNL d   1      -1.488   2.524   1.800  0.00  0.00     0.004 A 
ATOM      4  C5  UNL d   1      -1.279   3.334   0.684  0.00  0.00    -0.004 A 
ATOM      5  C6  UNL d   1      -0.634   2.823  -0.448  0.00  0.00    -0.075 A 
ATOM      6  C7  UNL d   1      -0.399   3.682  -1.656  0.00  0.00     0.076 C 
ATOM      7  C8  UNL d   1      -0.196   1.492  -0.441  0.00  0.00     0.001 A 
ENDROOT
BRANCH   1   8
ATOM      8  C1  UNL d   1       0.074  -0.760   0.670  0.00  0.00     0.053 C 
ATOM      9  C   UNL d   1       0.834  -1.103  -0.601  0.00  0.00     0.018 C 
ENDBRANCH   1   8
TORSDOF 1
ENDMDL
