MODEL 1
REMARK minimizedAffinity -5.73225689
REMARK minimizedRMSD -1
REMARK  1 active torsions:
REMARK  status: ('A' for Active; 'I' for Inactive)
REMARK    1  A    between atoms: C1_2  and  C2_3 
ROOT
ATOM      1  C2  UNL d   1      -0.094  -0.298   0.281  0.00  0.00    -0.073 A 
ATOM      2  C3  UNL d   1      -0.075  -1.135   1.403  0.00  0.00    -0.002 A 
ATOM      3  C4  UNL d   1      -0.894  -0.864   2.499  0.00  0.00     0.004 A 
ATOM      4  C5  UNL d   1      -1.745   0.242   2.483  0.00  0.00    -0.004 A 
ATOM      5  C6  UNL d   1      -1.787   1.083   1.367  0.00  0.00    -0.075 A 
ATOM      6  C7  UNL d   1      -2.695   2.277   1.335  0.00  0.00     0.076 C 
ATOM      7  C8  UNL d   1      -0.959   0.805   0.271  0.00  0.00     0.001 A 
ENDROOT
BRANCH   1   8
ATOM      8  C1  UNL d   1       0.784  -0.591  -0.907  0.00  0.00     0.053 C 
ATOM      9  C   UNL d   1       0.772  -2.066  -1.276  0.00  0.00     0.018 C 
ENDBRANCH   1   8
TORSDOF 1
ENDMDL
