MODEL 1
REMARK minimizedAffinity -3.23140931
REMARK minimizedRMSD -1
REMARK  1 active torsions:
REMARK  status: ('A' for Active; 'I' for Inactive)
REMARK    1  A    between atoms: C1_2  and  C2_3 
ROOT
ATOM      1  C2  UNL d   1       0.991  -1.778  -1.224  0.00  0.00    -0.073 A 
ATOM      2  C3  UNL d   1       0.367  -1.799  -2.477  0.00  0.00    -0.002 A 
ATOM      3  C4  UNL d   1       0.124  -3.012  -3.123  0.00  0.00     0.004 A 
ATOM      4  C5  UNL d   1       0.494  -4.214  -2.522  0.00  0.00    -0.004 A 
ATOM      5  C6  UNL d   1       1.108  -4.215  -1.265  0.00  0.00    -0.075 A 
ATOM      6  C7  UNL d   1       1.515  -5.500  -0.606  0.00  0.00     0.076 C 
ATOM      7  C8  UNL d   1       1.352  -2.993  -0.624  0.00  0.00     0.001 A 
ENDROOT
BRANCH   1   8
ATOM      8  C1  UNL d   1       1.250  -0.471  -0.520  0.00  0.00     0.053 C 
ATOM      9  C   UNL d   1       0.177  -0.157   0.511  0.00  0.00     0.018 C 
ENDBRANCH   1   8
TORSDOF 1
ENDMDL
