MODEL 1
REMARK minimizedAffinity -3.15519452
REMARK minimizedRMSD -1
REMARK  1 active torsions:
REMARK  status: ('A' for Active; 'I' for Inactive)
REMARK    1  A    between atoms: C1_2  and  C2_3 
ROOT
ATOM      1  C2  UNL d   1      -0.967   1.380   0.909  0.00  0.00    -0.073 A 
ATOM      2  C3  UNL d   1      -0.540   0.052   1.021  0.00  0.00    -0.002 A 
ATOM      3  C4  UNL d   1       0.490  -0.428   0.212  0.00  0.00     0.004 A 
ATOM      4  C5  UNL d   1       1.108   0.414  -0.711  0.00  0.00    -0.004 A 
ATOM      5  C6  UNL d   1       0.704   1.748  -0.831  0.00  0.00    -0.075 A 
ATOM      6  C7  UNL d   1       1.358   2.666  -1.821  0.00  0.00     0.076 C 
ATOM      7  C8  UNL d   1      -0.333   2.222  -0.016  0.00  0.00     0.001 A 
ENDROOT
BRANCH   1   8
ATOM      8  C1  UNL d   1      -2.075   1.906   1.785  0.00  0.00     0.053 C 
ATOM      9  C   UNL d   1      -2.519   3.299   1.368  0.00  0.00     0.018 C 
ENDBRANCH   1   8
TORSDOF 1
ENDMDL
