MODEL 1
REMARK minimizedAffinity -5.92220831
REMARK minimizedRMSD -1
REMARK  1 active torsions:
REMARK  status: ('A' for Active; 'I' for Inactive)
REMARK    1  A    between atoms: C1_2  and  C2_3 
ROOT
ATOM      1  C2  UNL d   1      -0.176  -0.334   0.134  0.00  0.00    -0.073 A 
ATOM      2  C3  UNL d   1      -0.834  -0.844   1.259  0.00  0.00    -0.002 A 
ATOM      3  C4  UNL d   1      -1.555   0.005   2.099  0.00  0.00     0.004 A 
ATOM      4  C5  UNL d   1      -1.631   1.370   1.821  0.00  0.00    -0.004 A 
ATOM      5  C6  UNL d   1      -0.990   1.897   0.695  0.00  0.00    -0.075 A 
ATOM      6  C7  UNL d   1      -1.061   3.363   0.382  0.00  0.00     0.076 C 
ATOM      7  C8  UNL d   1      -0.266   1.038  -0.143  0.00  0.00     0.001 A 
ENDROOT
BRANCH   1   8
ATOM      8  C1  UNL d   1       0.598  -1.248  -0.780  0.00  0.00     0.053 C 
ATOM      9  C   UNL d   1      -0.314  -2.181  -1.560  0.00  0.00     0.018 C 
ENDBRANCH   1   8
TORSDOF 1
ENDMDL
