MODEL 1
REMARK minimizedAffinity -1.34099054
REMARK minimizedRMSD -1
REMARK  1 active torsions:
REMARK  status: ('A' for Active; 'I' for Inactive)
REMARK    1  A    between atoms: C1_2  and  C2_3 
ROOT
ATOM      1  C2  UNL d   1       0.491  -1.099  -0.710  0.00  0.00    -0.073 A 
ATOM      2  C3  UNL d   1      -0.113  -1.299   0.536  0.00  0.00    -0.002 A 
ATOM      3  C4  UNL d   1      -0.842  -0.274   1.140  0.00  0.00     0.004 A 
ATOM      4  C5  UNL d   1      -0.980   0.959   0.501  0.00  0.00    -0.004 A 
ATOM      5  C6  UNL d   1      -0.393   1.175  -0.750  0.00  0.00    -0.075 A 
ATOM      6  C7  UNL d   1      -0.530   2.496  -1.448  0.00  0.00     0.076 C 
ATOM      7  C8  UNL d   1       0.339   0.141  -1.348  0.00  0.00     0.001 A 
ENDROOT
BRANCH   1   8
ATOM      8  C1  UNL d   1       1.274  -2.205  -1.368  0.00  0.00     0.053 C 
ATOM      9  C   UNL d   1       0.737  -2.539  -2.751  0.00  0.00     0.018 C 
ENDBRANCH   1   8
TORSDOF 1
ENDMDL
