MODEL 1
REMARK minimizedAffinity -3.06256413
REMARK minimizedRMSD -1
REMARK  0 active torsions:
REMARK  status: ('A' for Active; 'I' for Inactive)
ROOT
ATOM      1  C1  DEN d   1      -0.375   1.354  -0.155  0.00  0.00     0.130 A 
ATOM      2  C2  DEN d   1      -1.468   0.419  -0.406  0.00  0.00    -0.031 A 
ATOM      3  C3  DEN d   1      -0.975  -0.945  -0.131  0.00  0.00     0.027 A 
ATOM      4  C4  DEN d   1       1.362  -1.697   0.660  0.00  0.00     0.027 A 
ATOM      5  C5  DEN d   1       2.626  -1.265   0.997  0.00  0.00    -0.003 A 
ATOM      6  C6  DEN d   1       2.985   0.056   0.942  0.00  0.00     0.001 A 
ATOM      7  C7  DEN d   1       2.056   0.997   0.584  0.00  0.00     0.017 A 
ATOM      8  C8  DEN d   1       0.782   0.569   0.235  0.00  0.00    -0.094 A 
ATOM      9  C9  DEN d   1       0.435  -0.770   0.309  0.00  0.00    -0.072 A 
ENDROOT
TORSDOF 0
ENDMDL
