MODEL 1
REMARK minimizedAffinity -4.37052774
REMARK minimizedRMSD -1
REMARK  0 active torsions:
REMARK  status: ('A' for Active; 'I' for Inactive)
ROOT
ATOM      1  C1  DEN d   1       0.678   0.387  -1.204  0.00  0.00     0.130 A 
ATOM      2  C2  DEN d   1       0.703   0.997   0.122  0.00  0.00    -0.031 A 
ATOM      3  C3  DEN d   1      -0.693   1.222   0.548  0.00  0.00     0.027 A 
ATOM      4  C4  DEN d   1      -2.879   0.682  -0.710  0.00  0.00     0.027 A 
ATOM      5  C5  DEN d   1      -3.407   0.169  -1.874  0.00  0.00    -0.003 A 
ATOM      6  C6  DEN d   1      -2.617  -0.272  -2.902  0.00  0.00     0.001 A 
ATOM      7  C7  DEN d   1      -1.254  -0.250  -2.768  0.00  0.00     0.017 A 
ATOM      8  C8  DEN d   1      -0.714   0.272  -1.600  0.00  0.00    -0.094 A 
ATOM      9  C9  DEN d   1      -1.530   0.702  -0.567  0.00  0.00    -0.072 A 
ENDROOT
TORSDOF 0
ENDMDL
