MODEL 1
REMARK minimizedAffinity -1.23961926
REMARK minimizedRMSD -1
REMARK  0 active torsions:
REMARK  status: ('A' for Active; 'I' for Inactive)
ROOT
ATOM      1  C1  DEN d   1      -0.029  -0.976  -1.735  0.00  0.00     0.130 A 
ATOM      2  C2  DEN d   1      -1.284  -0.254  -1.543  0.00  0.00    -0.031 A 
ATOM      3  C3  DEN d   1      -1.143   0.597  -0.344  0.00  0.00     0.027 A 
ATOM      4  C4  DEN d   1       0.888   0.870   1.222  0.00  0.00     0.027 A 
ATOM      5  C5  DEN d   1       2.178   0.454   1.471  0.00  0.00    -0.003 A 
ATOM      6  C6  DEN d   1       2.805  -0.485   0.695  0.00  0.00     0.001 A 
ATOM      7  C7  DEN d   1       2.159  -1.006  -0.395  0.00  0.00     0.017 A 
ATOM      8  C8  DEN d   1       0.856  -0.598  -0.648  0.00  0.00    -0.094 A 
ATOM      9  C9  DEN d   1       0.244   0.362   0.141  0.00  0.00    -0.072 A 
ENDROOT
TORSDOF 0
ENDMDL
