MODEL 1
REMARK minimizedAffinity 3.84553671
REMARK minimizedRMSD -1
REMARK  0 active torsions:
REMARK  status: ('A' for Active; 'I' for Inactive)
ROOT
ATOM      1  C1  DEN d   1      -1.609  -1.173  -2.698  0.00  0.00     0.130 A 
ATOM      2  C2  DEN d   1      -2.435  -0.070  -3.180  0.00  0.00    -0.031 A 
ATOM      3  C3  DEN d   1      -2.318   1.043  -2.217  0.00  0.00     0.027 A 
ATOM      4  C4  DEN d   1      -0.941   1.166  -0.040  0.00  0.00     0.027 A 
ATOM      5  C5  DEN d   1      -0.090   0.472   0.791  0.00  0.00    -0.003 A 
ATOM      6  C6  DEN d   1       0.285  -0.821   0.537  0.00  0.00     0.001 A 
ATOM      7  C7  DEN d   1      -0.157  -1.445  -0.600  0.00  0.00     0.017 A 
ATOM      8  C8  DEN d   1      -1.022  -0.753  -1.438  0.00  0.00    -0.094 A 
ATOM      9  C9  DEN d   1      -1.380   0.557  -1.170  0.00  0.00    -0.072 A 
ENDROOT
TORSDOF 0
ENDMDL
