MODEL 1
REMARK minimizedAffinity -5.58034992
REMARK minimizedRMSD -1
REMARK  0 active torsions:
REMARK  status: ('A' for Active; 'I' for Inactive)
ROOT
ATOM      1  C1  DEN d   1      -0.811  -0.301  -0.052  0.00  0.00     0.130 A 
ATOM      2  C2  DEN d   1      -0.868   1.100  -0.462  0.00  0.00    -0.031 A 
ATOM      3  C3  DEN d   1       0.439   1.718  -0.160  0.00  0.00     0.027 A 
ATOM      4  C4  DEN d   1       2.536   0.646   0.892  0.00  0.00     0.027 A 
ATOM      5  C5  DEN d   1       3.061  -0.515   1.416  0.00  0.00    -0.003 A 
ATOM      6  C6  DEN d   1       2.327  -1.667   1.518  0.00  0.00     0.001 A 
ATOM      7  C7  DEN d   1       1.040  -1.696   1.048  0.00  0.00     0.017 A 
ATOM      8  C8  DEN d   1       0.502  -0.528   0.525  0.00  0.00    -0.094 A 
ATOM      9  C9  DEN d   1       1.264   0.623   0.419  0.00  0.00    -0.072 A 
ENDROOT
TORSDOF 0
ENDMDL
