MODEL 1
REMARK minimizedAffinity -6.61583328
REMARK minimizedRMSD -1
REMARK  0 active torsions:
REMARK  status: ('A' for Active; 'I' for Inactive)
ROOT
ATOM      1  C1  DEN d   1       0.341   1.199  -0.245  0.00  0.00     0.130 A 
ATOM      2  C2  DEN d   1      -0.934   0.507  -0.411  0.00  0.00    -0.031 A 
ATOM      3  C3  DEN d   1      -0.815  -0.826   0.214  0.00  0.00     0.027 A 
ATOM      4  C4  DEN d   1       1.208  -1.878   1.419  0.00  0.00     0.027 A 
ATOM      5  C5  DEN d   1       2.517  -1.677   1.799  0.00  0.00    -0.003 A 
ATOM      6  C6  DEN d   1       3.197  -0.527   1.497  0.00  0.00     0.001 A 
ATOM      7  C7  DEN d   1       2.557   0.486   0.834  0.00  0.00     0.017 A 
ATOM      8  C8  DEN d   1       1.240   0.288   0.441  0.00  0.00    -0.094 A 
ATOM      9  C9  DEN d   1       0.565  -0.876   0.767  0.00  0.00    -0.072 A 
ENDROOT
TORSDOF 0
ENDMDL
