MODEL 1
REMARK minimizedAffinity -5.77329159
REMARK minimizedRMSD -1
REMARK  0 active torsions:
REMARK  status: ('A' for Active; 'I' for Inactive)
ROOT
ATOM      1  C1  DEN d   1      -0.394  -1.575   0.202  0.00  0.00     0.130 A 
ATOM      2  C2  DEN d   1      -1.579  -0.772  -0.087  0.00  0.00    -0.031 A 
ATOM      3  C3  DEN d   1      -1.211   0.651   0.049  0.00  0.00     0.027 A 
ATOM      4  C4  DEN d   1       1.070   1.684   0.670  0.00  0.00     0.027 A 
ATOM      5  C5  DEN d   1       2.373   1.403   1.016  0.00  0.00    -0.003 A 
ATOM      6  C6  DEN d   1       2.832   0.119   1.147  0.00  0.00     0.001 A 
ATOM      7  C7  DEN d   1       1.994  -0.932   0.886  0.00  0.00     0.017 A 
ATOM      8  C8  DEN d   1       0.676  -0.656   0.544  0.00  0.00    -0.094 A 
ATOM      9  C9  DEN d   1       0.234   0.648   0.405  0.00  0.00    -0.072 A 
ENDROOT
TORSDOF 0
ENDMDL
