MODEL 1
REMARK minimizedAffinity -2.80717468
REMARK minimizedRMSD -1
REMARK  0 active torsions:
REMARK  status: ('A' for Active; 'I' for Inactive)
ROOT
ATOM      1  C1  DEN d   1      -1.100   1.136  -0.630  0.00  0.00     0.130 A 
ATOM      2  C2  DEN d   1      -0.517  -0.027   0.034  0.00  0.00    -0.031 A 
ATOM      3  C3  DEN d   1      -1.079  -1.240  -0.595  0.00  0.00     0.027 A 
ATOM      4  C4  DEN d   1      -2.781  -1.427  -2.524  0.00  0.00     0.027 A 
ATOM      5  C5  DEN d   1      -3.568  -0.713  -3.400  0.00  0.00    -0.003 A 
ATOM      6  C6  DEN d   1      -3.613   0.656  -3.392  0.00  0.00     0.001 A 
ATOM      7  C7  DEN d   1      -2.822   1.356  -2.518  0.00  0.00     0.017 A 
ATOM      8  C8  DEN d   1      -2.031   0.642  -1.627  0.00  0.00    -0.094 A 
ATOM      9  C9  DEN d   1      -1.991  -0.741  -1.660  0.00  0.00    -0.072 A 
ENDROOT
TORSDOF 0
ENDMDL
