MODEL 1
REMARK minimizedAffinity -2.24486494
REMARK minimizedRMSD -1
REMARK  0 active torsions:
REMARK  status: ('A' for Active; 'I' for Inactive)
ROOT
ATOM      1  O1  BZF d   1       3.179   3.009   5.910  0.00  0.00    -0.204 OA
ATOM      2  C2  BZF d   1       4.264   2.961   5.057  0.00  0.00     0.174 A 
ATOM      3  C3  BZF d   1       4.125   3.852   4.055  0.00  0.00    -0.012 A 
ATOM      4  C3A BZF d   1       2.918   4.563   4.348  0.00  0.00    -0.107 A 
ATOM      5  C4  BZF d   1       2.256   5.584   3.729  0.00  0.00     0.055 A 
ATOM      6  C5  BZF d   1       1.064   6.000   4.233  0.00  0.00    -0.016 A 
ATOM      7  C6  BZF d   1       0.504   5.414   5.349  0.00  0.00     0.022 A 
ATOM      8  C7  BZF d   1       1.126   4.401   6.000  0.00  0.00     0.029 A 
ATOM      9  C7A BZF d   1       2.346   4.001   5.513  0.00  0.00     0.058 A 
ENDROOT
TORSDOF 0
ENDMDL
