MODEL 1
REMARK minimizedAffinity 12.5310392
REMARK minimizedRMSD -1
REMARK  0 active torsions:
REMARK  status: ('A' for Active; 'I' for Inactive)
ROOT
ATOM      1  O1  BZF d   1      -1.027   1.927   0.433  0.00  0.00    -0.204 OA
ATOM      2  C2  BZF d   1      -0.362   1.599  -0.733  0.00  0.00     0.174 A 
ATOM      3  C3  BZF d   1      -1.146   0.850  -1.535  0.00  0.00    -0.012 A 
ATOM      4  C3A BZF d   1      -2.409   0.778  -0.868  0.00  0.00    -0.107 A 
ATOM      5  C4  BZF d   1      -3.601   0.186  -1.175  0.00  0.00     0.055 A 
ATOM      6  C5  BZF d   1      -4.617   0.243  -0.274  0.00  0.00    -0.016 A 
ATOM      7  C6  BZF d   1      -4.475   0.877   0.942  0.00  0.00     0.022 A 
ATOM      8  C7  BZF d   1      -3.314   1.483   1.289  0.00  0.00     0.029 A 
ATOM      9  C7A BZF d   1      -2.295   1.456   0.368  0.00  0.00     0.058 A 
ENDROOT
TORSDOF 0
ENDMDL
