MODEL 1
REMARK minimizedAffinity 17.3430538
REMARK minimizedRMSD -1
REMARK  0 active torsions:
REMARK  status: ('A' for Active; 'I' for Inactive)
ROOT
ATOM      1  O1  BZF d   1       2.373  -1.389  -1.400  0.00  0.00    -0.204 OA
ATOM      2  C2  BZF d   1       2.599  -0.065  -1.720  0.00  0.00     0.174 A 
ATOM      3  C3  BZF d   1       3.433   0.508  -0.829  0.00  0.00    -0.012 A 
ATOM      4  C3A BZF d   1       3.822  -0.548   0.055  0.00  0.00    -0.107 A 
ATOM      5  C4  BZF d   1       4.651  -0.608   1.138  0.00  0.00     0.055 A 
ATOM      6  C5  BZF d   1       4.757  -1.776   1.825  0.00  0.00    -0.016 A 
ATOM      7  C6  BZF d   1       4.045  -2.900   1.460  0.00  0.00     0.022 A 
ATOM      8  C7  BZF d   1       3.214  -2.890   0.389  0.00  0.00     0.029 A 
ATOM      9  C7A BZF d   1       3.130  -1.721  -0.326  0.00  0.00     0.058 A 
ENDROOT
TORSDOF 0
ENDMDL
