MODEL 1
REMARK minimizedAffinity 13.1302805
REMARK minimizedRMSD -1
REMARK  0 active torsions:
REMARK  status: ('A' for Active; 'I' for Inactive)
ROOT
ATOM      1  O1  BZF d   1       3.550   0.508  -1.264  0.00  0.00    -0.204 OA
ATOM      2  C2  BZF d   1       2.248   0.376  -0.819  0.00  0.00     0.174 A 
ATOM      3  C3  BZF d   1       2.097   0.946   0.393  0.00  0.00    -0.012 A 
ATOM      4  C3A BZF d   1       3.361   1.548   0.687  0.00  0.00    -0.107 A 
ATOM      5  C4  BZF d   1       3.832   2.276   1.742  0.00  0.00     0.055 A 
ATOM      6  C5  BZF d   1       5.137   2.654   1.753  0.00  0.00    -0.016 A 
ATOM      7  C6  BZF d   1       6.000   2.317   0.731  0.00  0.00     0.022 A 
ATOM      8  C7  BZF d   1       5.578   1.600  -0.339  0.00  0.00     0.029 A 
ATOM      9  C7A BZF d   1       4.251   1.245  -0.369  0.00  0.00     0.058 A 
ENDROOT
TORSDOF 0
ENDMDL
