MODEL 1
REMARK minimizedAffinity 10.6456699
REMARK minimizedRMSD -1
REMARK  0 active torsions:
REMARK  status: ('A' for Active; 'I' for Inactive)
ROOT
ATOM      1  O1  BZF d   1       3.991   0.323  -2.544  0.00  0.00    -0.204 OA
ATOM      2  C2  BZF d   1       4.563   1.091  -1.548  0.00  0.00     0.174 A 
ATOM      3  C3  BZF d   1       4.403   0.507  -0.342  0.00  0.00    -0.012 A 
ATOM      4  C3A BZF d   1       3.767  -0.746  -0.612  0.00  0.00    -0.107 A 
ATOM      5  C4  BZF d   1       3.362  -1.783   0.178  0.00  0.00     0.055 A 
ATOM      6  C5  BZF d   1       2.707  -2.829  -0.389  0.00  0.00    -0.016 A 
ATOM      7  C6  BZF d   1       2.436  -2.870  -1.741  0.00  0.00     0.022 A 
ATOM      8  C7  BZF d   1       2.823  -1.867  -2.567  0.00  0.00     0.029 A 
ATOM      9  C7A BZF d   1       3.515  -0.823  -2.002  0.00  0.00     0.058 A 
ENDROOT
TORSDOF 0
ENDMDL
