MODEL 1
REMARK minimizedAffinity 10.6203251
REMARK minimizedRMSD -1
REMARK  0 active torsions:
REMARK  status: ('A' for Active; 'I' for Inactive)
ROOT
ATOM      1  O1  BZF d   1       2.502   1.336  -0.946  0.00  0.00    -0.204 OA
ATOM      2  C2  BZF d   1       2.836   1.949   0.246  0.00  0.00     0.174 A 
ATOM      3  C3  BZF d   1       3.094   1.031   1.200  0.00  0.00    -0.012 A 
ATOM      4  C3A BZF d   1       2.999  -0.234   0.540  0.00  0.00    -0.107 A 
ATOM      5  C4  BZF d   1       3.166  -1.525   0.956  0.00  0.00     0.055 A 
ATOM      6  C5  BZF d   1       2.929  -2.536   0.080  0.00  0.00    -0.016 A 
ATOM      7  C6  BZF d   1       2.519  -2.295  -1.215  0.00  0.00     0.022 A 
ATOM      8  C7  BZF d   1       2.345  -1.032  -1.674  0.00  0.00     0.029 A 
ATOM      9  C7A BZF d   1       2.616  -0.006  -0.802  0.00  0.00     0.058 A 
ENDROOT
TORSDOF 0
ENDMDL
