MODEL 1
REMARK minimizedAffinity 0.967133582
REMARK minimizedRMSD -1
REMARK  0 active torsions:
REMARK  status: ('A' for Active; 'I' for Inactive)
ROOT
ATOM      1  O1  BZF d   1       0.253  -1.468  -1.921  0.00  0.00    -0.204 OA
ATOM      2  C2  BZF d   1      -0.008  -2.785  -1.593  0.00  0.00     0.174 A 
ATOM      3  C3  BZF d   1       0.926  -3.260  -0.743  0.00  0.00    -0.012 A 
ATOM      4  C3A BZF d   1       1.773  -2.144  -0.453  0.00  0.00    -0.107 A 
ATOM      5  C4  BZF d   1       2.872  -1.981   0.341  0.00  0.00     0.055 A 
ATOM      6  C5  BZF d   1       3.512  -0.782   0.345  0.00  0.00    -0.016 A 
ATOM      7  C6  BZF d   1       3.084   0.272  -0.435  0.00  0.00     0.022 A 
ATOM      8  C7  BZF d   1       1.996   0.160  -1.235  0.00  0.00     0.029 A 
ATOM      9  C7A BZF d   1       1.328  -1.040  -1.217  0.00  0.00     0.058 A 
ENDROOT
TORSDOF 0
ENDMDL
