MODEL 1
REMARK minimizedAffinity 2.18873978
REMARK minimizedRMSD -1
REMARK  0 active torsions:
REMARK  status: ('A' for Active; 'I' for Inactive)
ROOT
ATOM      1  O1  BZF d   1       3.321   5.097   5.927  0.00  0.00    -0.204 OA
ATOM      2  C2  BZF d   1       3.597   5.982   4.902  0.00  0.00     0.174 A 
ATOM      3  C3  BZF d   1       3.503   5.371   3.704  0.00  0.00    -0.012 A 
ATOM      4  C3A BZF d   1       3.055   4.043   3.993  0.00  0.00    -0.107 A 
ATOM      5  C4  BZF d   1       2.760   2.961   3.213  0.00  0.00     0.055 A 
ATOM      6  C5  BZF d   1       2.420   1.789   3.811  0.00  0.00    -0.016 A 
ATOM      7  C6  BZF d   1       2.370   1.662   5.184  0.00  0.00     0.022 A 
ATOM      8  C7  BZF d   1       2.649   2.709   5.998  0.00  0.00     0.029 A 
ATOM      9  C7A BZF d   1       2.961   3.903   5.397  0.00  0.00     0.058 A 
ENDROOT
TORSDOF 0
ENDMDL
