MODEL 1
REMARK minimizedAffinity 8.55802536
REMARK minimizedRMSD -1
REMARK  0 active torsions:
REMARK  status: ('A' for Active; 'I' for Inactive)
ROOT
ATOM      1  O1  BZF d   1      -3.360   2.221   0.853  0.00  0.00    -0.204 OA
ATOM      2  C2  BZF d   1      -3.698   0.884   0.930  0.00  0.00     0.174 A 
ATOM      3  C3  BZF d   1      -4.652   0.579   0.027  0.00  0.00    -0.012 A 
ATOM      4  C3A BZF d   1      -4.862   1.781  -0.720  0.00  0.00    -0.107 A 
ATOM      5  C4  BZF d   1      -5.676   2.106  -1.767  0.00  0.00     0.055 A 
ATOM      6  C5  BZF d   1      -5.693   3.389  -2.217  0.00  0.00    -0.016 A 
ATOM      7  C6  BZF d   1      -4.914   4.371  -1.641  0.00  0.00     0.022 A 
ATOM      8  C7  BZF d   1      -4.086   4.095  -0.604  0.00  0.00     0.029 A 
ATOM      9  C7A BZF d   1      -4.042   2.793  -0.168  0.00  0.00     0.058 A 
ENDROOT
TORSDOF 0
ENDMDL
