MODEL 1
REMARK minimizedAffinity -2.71565413
REMARK minimizedRMSD -1
REMARK  0 active torsions:
REMARK  status: ('A' for Active; 'I' for Inactive)
ROOT
ATOM      1  O1  BZF d   1       3.752   2.407   3.800  0.00  0.00    -0.204 OA
ATOM      2  C2  BZF d   1       3.449   1.594   4.875  0.00  0.00     0.174 A 
ATOM      3  C3  BZF d   1       3.004   2.325   5.917  0.00  0.00    -0.012 A 
ATOM      4  C3A BZF d   1       2.942   3.670   5.434  0.00  0.00    -0.107 A 
ATOM      5  C4  BZF d   1       2.560   4.854   5.998  0.00  0.00     0.055 A 
ATOM      6  C5  BZF d   1       2.689   6.000   5.279  0.00  0.00    -0.016 A 
ATOM      7  C6  BZF d   1       3.200   6.000   3.998  0.00  0.00     0.022 A 
ATOM      8  C7  BZF d   1       3.588   4.850   3.394  0.00  0.00     0.029 A 
ATOM      9  C7A BZF d   1       3.428   3.686   4.106  0.00  0.00     0.058 A 
ENDROOT
TORSDOF 0
ENDMDL
