MODEL 1
REMARK minimizedAffinity 0.249974892
REMARK minimizedRMSD -1
REMARK  0 active torsions:
REMARK  status: ('A' for Active; 'I' for Inactive)
ROOT
ATOM      1  O1  BZF d   1      -4.447   2.920   3.450  0.00  0.00    -0.204 OA
ATOM      2  C2  BZF d   1      -4.675   2.178   2.307  0.00  0.00     0.174 A 
ATOM      3  C3  BZF d   1      -3.519   1.931   1.658  0.00  0.00    -0.012 A 
ATOM      4  C3A BZF d   1      -2.495   2.479   2.494  0.00  0.00    -0.107 A 
ATOM      5  C4  BZF d   1      -1.133   2.533   2.397  0.00  0.00     0.055 A 
ATOM      6  C5  BZF d   1      -0.430   3.204   3.347  0.00  0.00    -0.016 A 
ATOM      7  C6  BZF d   1      -1.055   3.835   4.402  0.00  0.00     0.022 A 
ATOM      8  C7  BZF d   1      -2.402   3.804   4.544  0.00  0.00     0.029 A 
ATOM      9  C7A BZF d   1      -3.113   3.099   3.604  0.00  0.00     0.058 A 
ENDROOT
TORSDOF 0
ENDMDL
