MODEL 1
REMARK minimizedAffinity 0.548366249
REMARK minimizedRMSD -1
REMARK  0 active torsions:
REMARK  status: ('A' for Active; 'I' for Inactive)
ROOT
ATOM      1  O1  BZF d   1       1.155   3.809   4.451  0.00  0.00    -0.204 OA
ATOM      2  C2  BZF d   1       0.410   4.972   4.439  0.00  0.00     0.174 A 
ATOM      3  C3  BZF d   1       1.120   5.999   4.951  0.00  0.00    -0.012 A 
ATOM      4  C3A BZF d   1       2.419   5.463   5.218  0.00  0.00    -0.107 A 
ATOM      5  C4  BZF d   1       3.571   5.999   5.719  0.00  0.00     0.055 A 
ATOM      6  C5  BZF d   1       4.642   5.188   5.923  0.00  0.00    -0.016 A 
ATOM      7  C6  BZF d   1       4.595   3.838   5.644  0.00  0.00     0.022 A 
ATOM      8  C7  BZF d   1       3.476   3.262   5.141  0.00  0.00     0.029 A 
ATOM      9  C7A BZF d   1       2.402   4.085   4.902  0.00  0.00     0.058 A 
ENDROOT
TORSDOF 0
ENDMDL
