MODEL 1
REMARK minimizedAffinity -4.90636921
REMARK minimizedRMSD -1
REMARK  2 active torsions:
REMARK  status: ('A' for Active; 'I' for Inactive)
REMARK    1  A    between atoms: C2'_3  and  C1'_4 
REMARK    2  A    between atoms: C1'_4  and  C1_5 
ROOT
ATOM      1  C1  I4B d   1       0.106  -0.221  -0.236  0.00  0.00    -0.075 A 
ATOM      2  C2  I4B d   1       0.558  -0.552   1.017  0.00  0.00     0.003 A 
ATOM      3  C3  I4B d   1       0.251   0.274   2.126  0.00  0.00     0.002 A 
ATOM      4  C4  I4B d   1      -0.462   1.438   1.929  0.00  0.00    -0.004 A 
ATOM      5  C5  I4B d   1      -0.939   1.760   0.662  0.00  0.00     0.002 A 
ATOM      6  C6  I4B d   1      -0.664   0.919  -0.426  0.00  0.00     0.003 A 
ENDROOT
BRANCH   1   7
ATOM      7  C1' I4B d   1       0.477  -1.098  -1.391  0.00  0.00     0.060 C 
BRANCH   7   8
ATOM      8  C2' I4B d   1      -0.099  -2.475  -1.134  0.00  0.00    -0.013 C 
ATOM      9  C4' I4B d   1      -1.073  -2.869  -2.214  0.00  0.00     0.013 C 
ATOM     10  C3' I4B d   1       1.041  -3.446  -1.053  0.00  0.00     0.013 C 
ENDBRANCH   7   8
ENDBRANCH   1   7
TORSDOF 2
ENDMDL
