MODEL 1
REMARK minimizedAffinity -2.76478148
REMARK minimizedRMSD -1
REMARK  2 active torsions:
REMARK  status: ('A' for Active; 'I' for Inactive)
REMARK    1  A    between atoms: C2'_3  and  C1'_4 
REMARK    2  A    between atoms: C1'_4  and  C1_5 
ROOT
ATOM      1  C1  I4B d   1       0.123  -0.341  -0.448  0.00  0.00    -0.075 A 
ATOM      2  C2  I4B d   1      -0.902   0.553  -0.640  0.00  0.00     0.003 A 
ATOM      3  C3  I4B d   1      -1.177   1.541   0.336  0.00  0.00     0.002 A 
ATOM      4  C4  I4B d   1      -0.441   1.568   1.503  0.00  0.00    -0.004 A 
ATOM      5  C5  I4B d   1       0.612   0.676   1.685  0.00  0.00     0.002 A 
ATOM      6  C6  I4B d   1       0.904  -0.277   0.698  0.00  0.00     0.003 A 
ENDROOT
BRANCH   1   7
ATOM      7  C1' I4B d   1       0.365  -1.392  -1.484  0.00  0.00     0.060 C 
BRANCH   7   8
ATOM      8  C2' I4B d   1      -0.566  -2.553  -1.197  0.00  0.00    -0.013 C 
ATOM      9  C4' I4B d   1      -1.617  -2.686  -2.268  0.00  0.00     0.013 C 
ATOM     10  C3' I4B d   1       0.263  -3.798  -1.095  0.00  0.00     0.013 C 
ENDBRANCH   7   8
ENDBRANCH   1   7
TORSDOF 2
ENDMDL
