MODEL 1
REMARK minimizedAffinity -3.87949514
REMARK minimizedRMSD -1
REMARK  2 active torsions:
REMARK  status: ('A' for Active; 'I' for Inactive)
REMARK    1  A    between atoms: C2'_3  and  C1'_4 
REMARK    2  A    between atoms: C1'_4  and  C1_5 
ROOT
ATOM      1  C1  I4B d   1      -0.054  -0.459  -0.046  0.00  0.00    -0.075 A 
ATOM      2  C2  I4B d   1       0.425  -0.400   1.239  0.00  0.00     0.003 A 
ATOM      3  C3  I4B d   1       0.019   0.646   2.103  0.00  0.00     0.002 A 
ATOM      4  C4  I4B d   1      -0.821   1.633   1.628  0.00  0.00    -0.004 A 
ATOM      5  C5  I4B d   1      -1.323   1.558   0.332  0.00  0.00     0.002 A 
ATOM      6  C6  I4B d   1      -0.948   0.499  -0.506  0.00  0.00     0.003 A 
ENDROOT
BRANCH   1   7
ATOM      7  C1' I4B d   1       0.420  -1.559  -0.942  0.00  0.00     0.060 C 
BRANCH   7   8
ATOM      8  C2' I4B d   1      -0.721  -2.539  -1.122  0.00  0.00    -0.013 C 
ATOM      9  C4' I4B d   1      -0.883  -2.927  -2.568  0.00  0.00     0.013 C 
ATOM     10  C3' I4B d   1      -0.440  -3.740  -0.268  0.00  0.00     0.013 C 
ENDBRANCH   7   8
ENDBRANCH   1   7
TORSDOF 2
ENDMDL
