MODEL 1
REMARK minimizedAffinity -3.84226346
REMARK minimizedRMSD -1
REMARK  2 active torsions:
REMARK  status: ('A' for Active; 'I' for Inactive)
REMARK    1  A    between atoms: C2'_3  and  C1'_4 
REMARK    2  A    between atoms: C1'_4  and  C1_5 
ROOT
ATOM      1  C1  I4B d   1      -0.047  -0.604  -0.316  0.00  0.00    -0.075 A 
ATOM      2  C2  I4B d   1       0.317  -1.144   0.892  0.00  0.00     0.003 A 
ATOM      3  C3  I4B d   1       0.337  -0.337   2.056  0.00  0.00     0.002 A 
ATOM      4  C4  I4B d   1       0.037   1.006   1.957  0.00  0.00    -0.004 A 
ATOM      5  C5  I4B d   1      -0.355   1.546   0.735  0.00  0.00     0.002 A 
ATOM      6  C6  I4B d   1      -0.409   0.734  -0.407  0.00  0.00     0.003 A 
ENDROOT
BRANCH   1   7
ATOM      7  C1' I4B d   1      -0.026  -1.477  -1.531  0.00  0.00     0.060 C 
BRANCH   7   8
ATOM      8  C2' I4B d   1      -0.383  -2.885  -1.100  0.00  0.00    -0.013 C 
ATOM      9  C4' I4B d   1      -1.647  -3.356  -1.769  0.00  0.00     0.013 C 
ATOM     10  C3' I4B d   1       0.773  -3.779  -1.437  0.00  0.00     0.013 C 
ENDBRANCH   7   8
ENDBRANCH   1   7
TORSDOF 2
ENDMDL
