MODEL 1
REMARK minimizedAffinity -5.73295927
REMARK minimizedRMSD -1
REMARK  2 active torsions:
REMARK  status: ('A' for Active; 'I' for Inactive)
REMARK    1  A    between atoms: C2'_3  and  C1'_4 
REMARK    2  A    between atoms: C1'_4  and  C1_5 
ROOT
ATOM      1  C1  I4B d   1      -0.260   1.032   0.471  0.00  0.00    -0.075 A 
ATOM      2  C2  I4B d   1      -0.401   1.529   1.742  0.00  0.00     0.003 A 
ATOM      3  C3  I4B d   1      -1.112   2.734   1.963  0.00  0.00     0.002 A 
ATOM      4  C4  I4B d   1      -1.620   3.430   0.885  0.00  0.00    -0.004 A 
ATOM      5  C5  I4B d   1      -1.496   2.913  -0.401  0.00  0.00     0.002 A 
ATOM      6  C6  I4B d   1      -0.823   1.700  -0.609  0.00  0.00     0.003 A 
ENDROOT
BRANCH   1   7
ATOM      7  C1' I4B d   1       0.525  -0.225   0.270  0.00  0.00     0.060 C 
BRANCH   7   8
ATOM      8  C2' I4B d   1       0.373  -0.645  -1.177  0.00  0.00    -0.013 C 
ATOM      9  C4' I4B d   1       1.525  -0.152  -2.012  0.00  0.00     0.013 C 
ATOM     10  C3' I4B d   1       0.276  -2.141  -1.217  0.00  0.00     0.013 C 
ENDBRANCH   7   8
ENDBRANCH   1   7
TORSDOF 2
ENDMDL
