MODEL 1
REMARK minimizedAffinity -4.58065891
REMARK minimizedRMSD -1
REMARK  2 active torsions:
REMARK  status: ('A' for Active; 'I' for Inactive)
REMARK    1  A    between atoms: C2'_3  and  C1'_4 
REMARK    2  A    between atoms: C1'_4  and  C1_5 
ROOT
ATOM      1  C1  I4B d   1       0.163   0.041  -1.164  0.00  0.00    -0.075 A 
ATOM      2  C2  I4B d   1       0.004  -0.102   0.191  0.00  0.00     0.003 A 
ATOM      3  C3  I4B d   1      -0.599   0.929   0.951  0.00  0.00     0.002 A 
ATOM      4  C4  I4B d   1      -0.979   2.100   0.327  0.00  0.00    -0.004 A 
ATOM      5  C5  I4B d   1      -0.837   2.234  -1.051  0.00  0.00     0.002 A 
ATOM      6  C6  I4B d   1      -0.274   1.194  -1.804  0.00  0.00     0.003 A 
ENDROOT
BRANCH   1   7
ATOM      7  C1' I4B d   1       0.834  -1.054  -1.931  0.00  0.00     0.060 C 
BRANCH   7   8
ATOM      8  C2' I4B d   1       0.180  -2.365  -1.541  0.00  0.00    -0.013 C 
ATOM      9  C4' I4B d   1      -0.640  -2.923  -2.674  0.00  0.00     0.013 C 
ATOM     10  C3' I4B d   1       1.263  -3.319  -1.135  0.00  0.00     0.013 C 
ENDBRANCH   7   8
ENDBRANCH   1   7
TORSDOF 2
ENDMDL
