MODEL 1
REMARK minimizedAffinity -5.85884809
REMARK minimizedRMSD -1
REMARK  2 active torsions:
REMARK  status: ('A' for Active; 'I' for Inactive)
REMARK    1  A    between atoms: C2'_3  and  C1'_4 
REMARK    2  A    between atoms: C1'_4  and  C1_5 
ROOT
ATOM      1  C1  I4B d   1      -0.204   1.824  -0.100  0.00  0.00    -0.075 A 
ATOM      2  C2  I4B d   1      -0.265   3.132  -0.513  0.00  0.00     0.003 A 
ATOM      3  C3  I4B d   1      -0.857   4.114   0.318  0.00  0.00     0.002 A 
ATOM      4  C4  I4B d   1      -1.417   3.738   1.522  0.00  0.00    -0.004 A 
ATOM      5  C5  I4B d   1      -1.334   2.416   1.949  0.00  0.00     0.002 A 
ATOM      6  C6  I4B d   1      -0.713   1.455   1.138  0.00  0.00     0.003 A 
ENDROOT
BRANCH   1   7
ATOM      7  C1' I4B d   1       0.398   0.806  -1.017  0.00  0.00     0.060 C 
BRANCH   7   8
ATOM      8  C2' I4B d   1       0.604  -0.470  -0.227  0.00  0.00    -0.013 C 
ATOM      9  C4' I4B d   1       0.767  -1.656  -1.140  0.00  0.00     0.013 C 
ATOM     10  C3' I4B d   1       1.811  -0.286   0.644  0.00  0.00     0.013 C 
ENDBRANCH   7   8
ENDBRANCH   1   7
TORSDOF 2
ENDMDL
