MODEL 1
REMARK minimizedAffinity -4.11056614
REMARK minimizedRMSD -1
REMARK  2 active torsions:
REMARK  status: ('A' for Active; 'I' for Inactive)
REMARK    1  A    between atoms: C2'_3  and  C1'_4 
REMARK    2  A    between atoms: C1'_4  and  C1_5 
ROOT
ATOM      1  C1  I4B d   1       0.132  -0.534  -0.041  0.00  0.00    -0.075 A 
ATOM      2  C2  I4B d   1       0.922  -1.276  -0.883  0.00  0.00     0.003 A 
ATOM      3  C3  I4B d   1       0.506  -2.564  -1.299  0.00  0.00     0.002 A 
ATOM      4  C4  I4B d   1      -0.675  -3.088  -0.813  0.00  0.00    -0.004 A 
ATOM      5  C5  I4B d   1      -1.485  -2.324   0.023  0.00  0.00     0.002 A 
ATOM      6  C6  I4B d   1      -1.086  -1.035   0.402  0.00  0.00     0.003 A 
ENDROOT
BRANCH   1   7
ATOM      7  C1' I4B d   1       0.617   0.809   0.406  0.00  0.00     0.060 C 
BRANCH   7   8
ATOM      8  C2' I4B d   1      -0.595   1.680   0.668  0.00  0.00    -0.013 C 
ATOM      9  C4' I4B d   1      -0.766   1.947   2.140  0.00  0.00     0.013 C 
ATOM     10  C3' I4B d   1      -0.421   2.957  -0.098  0.00  0.00     0.013 C 
ENDBRANCH   7   8
ENDBRANCH   1   7
TORSDOF 2
ENDMDL
