MODEL 1
REMARK minimizedAffinity -3.16158748
REMARK minimizedRMSD -1
REMARK  0 active torsions:
REMARK  status: ('A' for Active; 'I' for Inactive)
ROOT
ATOM      1  C2' OXE d   1      -0.120   0.031  -1.236  0.00  0.00     0.078 C 
ATOM      2  C1' OXE d   1       2.113  -1.487  -0.468  0.00  0.00     0.078 C 
ATOM      3  C1  OXE d   1       1.145  -1.066   0.609  0.00  0.00    -0.078 A 
ATOM      4  C2  OXE d   1       0.080  -0.284   0.231  0.00  0.00    -0.078 A 
ATOM      5  C3  OXE d   1      -0.872   0.087   1.176  0.00  0.00     0.003 A 
ATOM      6  C4  OXE d   1      -0.674  -0.200   2.532  0.00  0.00    -0.002 A 
ATOM      7  C5  OXE d   1       0.425  -0.961   2.944  0.00  0.00    -0.002 A 
ATOM      8  C6  OXE d   1       1.319  -1.437   1.991  0.00  0.00     0.003 A 
ENDROOT
TORSDOF 0
ENDMDL
