MODEL 1
REMARK minimizedAffinity -3.76584315
REMARK minimizedRMSD -1
REMARK  0 active torsions:
REMARK  status: ('A' for Active; 'I' for Inactive)
ROOT
ATOM      1  C2' OXE d   1      -0.615   0.737  -1.045  0.00  0.00     0.078 C 
ATOM      2  C1' OXE d   1      -1.976   1.170   1.372  0.00  0.00     0.078 C 
ATOM      3  C1  OXE d   1      -0.768   0.268   1.397  0.00  0.00    -0.078 A 
ATOM      4  C2  OXE d   1      -0.136   0.024   0.201  0.00  0.00    -0.078 A 
ATOM      5  C3  OXE d   1       1.016  -0.757   0.177  0.00  0.00     0.003 A 
ATOM      6  C4  OXE d   1       1.446  -1.421   1.332  0.00  0.00    -0.002 A 
ATOM      7  C5  OXE d   1       0.793  -1.218   2.553  0.00  0.00    -0.002 A 
ATOM      8  C6  OXE d   1      -0.288  -0.346   2.611  0.00  0.00     0.003 A 
ENDROOT
TORSDOF 0
ENDMDL
