MODEL 1
REMARK minimizedAffinity -4.00753784
REMARK minimizedRMSD -1
REMARK  0 active torsions:
REMARK  status: ('A' for Active; 'I' for Inactive)
ROOT
ATOM      1  C2' OXE d   1       0.221  -0.020  -1.784  0.00  0.00     0.078 C 
ATOM      2  C1' OXE d   1       2.277  -1.573  -0.669  0.00  0.00     0.078 C 
ATOM      3  C1  OXE d   1       1.276  -0.950   0.272  0.00  0.00    -0.078 A 
ATOM      4  C2  OXE d   1       0.301  -0.153  -0.278  0.00  0.00    -0.078 A 
ATOM      5  C3  OXE d   1      -0.679   0.402   0.539  0.00  0.00     0.003 A 
ATOM      6  C4  OXE d   1      -0.592   0.282   1.932  0.00  0.00    -0.002 A 
ATOM      7  C5  OXE d   1       0.416  -0.492   2.516  0.00  0.00    -0.002 A 
ATOM      8  C6  OXE d   1       1.331  -1.148   1.700  0.00  0.00     0.003 A 
ENDROOT
TORSDOF 0
ENDMDL
