MODEL 1
REMARK minimizedAffinity -0.489554763
REMARK minimizedRMSD -1
REMARK  0 active torsions:
REMARK  status: ('A' for Active; 'I' for Inactive)
ROOT
ATOM      1  C2' OXE d   1      -0.868   1.068  -0.851  0.00  0.00     0.078 C 
ATOM      2  C1' OXE d   1      -2.089   1.677   1.603  0.00  0.00     0.078 C 
ATOM      3  C1  OXE d   1      -1.055   0.579   1.585  0.00  0.00    -0.078 A 
ATOM      4  C2  OXE d   1      -0.497   0.257   0.371  0.00  0.00    -0.078 A 
ATOM      5  C3  OXE d   1       0.502  -0.711   0.307  0.00  0.00     0.003 A 
ATOM      6  C4  OXE d   1       0.833  -1.464   1.441  0.00  0.00    -0.002 A 
ATOM      7  C5  OXE d   1       0.248  -1.178   2.679  0.00  0.00    -0.002 A 
ATOM      8  C6  OXE d   1      -0.665  -0.133   2.776  0.00  0.00     0.003 A 
ENDROOT
TORSDOF 0
ENDMDL
