MODEL 1
REMARK minimizedAffinity -4.0947566
REMARK minimizedRMSD -1
REMARK  0 active torsions:
REMARK  status: ('A' for Active; 'I' for Inactive)
ROOT
ATOM      1  C2' OXE d   1      -0.734   0.380  -1.528  0.00  0.00     0.078 C 
ATOM      2  C1' OXE d   1       1.383  -1.459  -1.396  0.00  0.00     0.078 C 
ATOM      3  C1  OXE d   1       0.621  -1.172  -0.127  0.00  0.00    -0.078 A 
ATOM      4  C2  OXE d   1      -0.383  -0.236  -0.191  0.00  0.00    -0.078 A 
ATOM      5  C3  OXE d   1      -1.154   0.027   0.938  0.00  0.00     0.003 A 
ATOM      6  C4  OXE d   1      -0.817  -0.539   2.174  0.00  0.00    -0.002 A 
ATOM      7  C5  OXE d   1       0.228  -1.465   2.269  0.00  0.00    -0.002 A 
ATOM      8  C6  OXE d   1       0.928  -1.823   1.123  0.00  0.00     0.003 A 
ENDROOT
TORSDOF 0
ENDMDL
