MODEL 1
REMARK minimizedAffinity -1.26311398
REMARK minimizedRMSD -1
REMARK  0 active torsions:
REMARK  status: ('A' for Active; 'I' for Inactive)
ROOT
ATOM      1  C2' OXE d   1       0.219   0.219  -1.366  0.00  0.00     0.078 C 
ATOM      2  C1' OXE d   1      -0.951  -0.082   1.167  0.00  0.00     0.078 C 
ATOM      3  C1  OXE d   1       0.245  -0.940   0.839  0.00  0.00    -0.078 A 
ATOM      4  C2  OXE d   1       0.783  -0.819  -0.420  0.00  0.00    -0.078 A 
ATOM      5  C3  OXE d   1       1.921  -1.547  -0.756  0.00  0.00     0.003 A 
ATOM      6  C4  OXE d   1       2.430  -2.512   0.121  0.00  0.00    -0.002 A 
ATOM      7  C5  OXE d   1       1.872  -2.680   1.393  0.00  0.00    -0.002 A 
ATOM      8  C6  OXE d   1       0.809  -1.873   1.783  0.00  0.00     0.003 A 
ENDROOT
TORSDOF 0
ENDMDL
