MODEL 1
REMARK minimizedAffinity -1.84646881
REMARK minimizedRMSD -1
REMARK  0 active torsions:
REMARK  status: ('A' for Active; 'I' for Inactive)
ROOT
ATOM      1  C2' OXE d   1      -0.791   0.603  -1.033  0.00  0.00     0.078 C 
ATOM      2  C1' OXE d   1       1.233  -1.328  -1.262  0.00  0.00     0.078 C 
ATOM      3  C1  OXE d   1       0.650  -1.079   0.106  0.00  0.00    -0.078 A 
ATOM      4  C2  OXE d   1      -0.307  -0.099   0.217  0.00  0.00    -0.078 A 
ATOM      5  C3  OXE d   1      -0.917   0.133   1.446  0.00  0.00     0.003 A 
ATOM      6  C4  OXE d   1      -0.456  -0.514   2.599  0.00  0.00    -0.002 A 
ATOM      7  C5  OXE d   1       0.546  -1.487   2.515  0.00  0.00    -0.002 A 
ATOM      8  C6  OXE d   1       1.078  -1.811   1.273  0.00  0.00     0.003 A 
ENDROOT
TORSDOF 0
ENDMDL
