MODEL 1
REMARK minimizedAffinity -2.56883597
REMARK minimizedRMSD -1
REMARK  0 active torsions:
REMARK  status: ('A' for Active; 'I' for Inactive)
ROOT
ATOM      1  C2' OXE d   1      -1.690   1.703  -2.965  0.00  0.00     0.078 C 
ATOM      2  C1' OXE d   1      -0.227   3.515  -1.397  0.00  0.00     0.078 C 
ATOM      3  C1  OXE d   1      -0.232   2.066  -0.978  0.00  0.00    -0.078 A 
ATOM      4  C2  OXE d   1      -0.988   1.194  -1.724  0.00  0.00    -0.078 A 
ATOM      5  C3  OXE d   1      -0.984  -0.163  -1.413  0.00  0.00     0.003 A 
ATOM      6  C4  OXE d   1      -0.340  -0.623  -0.258  0.00  0.00    -0.002 A 
ATOM      7  C5  OXE d   1       0.403   0.254   0.538  0.00  0.00    -0.002 A 
ATOM      8  C6  OXE d   1       0.502   1.591   0.169  0.00  0.00     0.003 A 
ENDROOT
TORSDOF 0
ENDMDL
