MODEL 1
REMARK minimizedAffinity -3.45746541
REMARK minimizedRMSD -1
REMARK  0 active torsions:
REMARK  status: ('A' for Active; 'I' for Inactive)
ROOT
ATOM      1  C2' OXE d   1      -0.631   1.191  -1.405  0.00  0.00     0.078 C 
ATOM      2  C1' OXE d   1       0.899  -1.162  -1.388  0.00  0.00     0.078 C 
ATOM      3  C1  OXE d   1       0.281  -0.716  -0.087  0.00  0.00    -0.078 A 
ATOM      4  C2  OXE d   1      -0.427   0.462  -0.095  0.00  0.00    -0.078 A 
ATOM      5  C3  OXE d   1      -1.064   0.891   1.066  0.00  0.00     0.003 A 
ATOM      6  C4  OXE d   1      -0.862   0.217   2.276  0.00  0.00    -0.002 A 
ATOM      7  C5  OXE d   1      -0.112  -0.963   2.315  0.00  0.00    -0.002 A 
ATOM      8  C6  OXE d   1       0.430  -1.465   1.136  0.00  0.00     0.003 A 
ENDROOT
TORSDOF 0
ENDMDL
