MODEL 1
REMARK minimizedAffinity -4.15388632
REMARK minimizedRMSD -1
REMARK  0 active torsions:
REMARK  status: ('A' for Active; 'I' for Inactive)
ROOT
ATOM      1  C2' OXE d   1       0.210  -0.392  -1.675  0.00  0.00     0.078 C 
ATOM      2  C1' OXE d   1       2.093  -1.853  -0.192  0.00  0.00     0.078 C 
ATOM      3  C1  OXE d   1       0.926  -1.252   0.551  0.00  0.00    -0.078 A 
ATOM      4  C2  OXE d   1       0.035  -0.499  -0.175  0.00  0.00    -0.078 A 
ATOM      5  C3  OXE d   1      -1.089   0.032   0.451  0.00  0.00     0.003 A 
ATOM      6  C4  OXE d   1      -1.238  -0.063   1.840  0.00  0.00    -0.002 A 
ATOM      7  C5  OXE d   1      -0.320  -0.791   2.604  0.00  0.00    -0.002 A 
ATOM      8  C6  OXE d   1       0.742  -1.426   1.970  0.00  0.00     0.003 A 
ENDROOT
TORSDOF 0
ENDMDL
