MODEL 1
REMARK minimizedAffinity -0.104149379
REMARK minimizedRMSD -1
REMARK  0 active torsions:
REMARK  status: ('A' for Active; 'I' for Inactive)
ROOT
ATOM      1  C2' OXE d   1       1.218  -1.249  -1.111  0.00  0.00     0.078 C 
ATOM      2  C1' OXE d   1      -0.361   1.063  -1.302  0.00  0.00     0.078 C 
ATOM      3  C1  OXE d   1      -0.353   0.324   0.013  0.00  0.00    -0.078 A 
ATOM      4  C2  OXE d   1       0.386  -0.833   0.083  0.00  0.00    -0.078 A 
ATOM      5  C3  OXE d   1       0.472  -1.524   1.288  0.00  0.00     0.003 A 
ATOM      6  C4  OXE d   1      -0.309  -1.138   2.384  0.00  0.00    -0.002 A 
ATOM      7  C5  OXE d   1      -1.100   0.015   2.321  0.00  0.00    -0.002 A 
ATOM      8  C6  OXE d   1      -1.100   0.779   1.159  0.00  0.00     0.003 A 
ENDROOT
TORSDOF 0
ENDMDL
