MODEL 1
REMARK minimizedAffinity 35.2241096
REMARK minimizedRMSD -1
REMARK  0 active torsions:
REMARK  status: ('A' for Active; 'I' for Inactive)
ROOT
ATOM      1  C   UNL d   1       2.766  -1.299  -1.724  0.00  0.00     0.124 A 
ATOM      2  C1  UNL d   1       4.089  -0.881  -1.687  0.00  0.00     0.062 A 
ATOM      3  C2  UNL d   1       4.714  -0.433  -2.847  0.00  0.00     0.162 A 
ATOM      4  C3  UNL d   1       4.017  -0.400  -4.054  0.00  0.00    -0.034 A 
ATOM      5  C4  UNL d   1       2.687  -0.824  -4.084  0.00  0.00     0.162 A 
ATOM      6  C5  UNL d   1       2.067  -1.270  -2.922  0.00  0.00     0.062 A 
ATOM      7  F   UNL d   1       0.788  -1.675  -2.961  0.00  0.00    -0.097 F 
ATOM      8  F1  UNL d   1       1.988  -0.806  -5.229  0.00  0.00    -0.096 F 
ATOM      9  I   UNL d   1       4.949   0.268  -5.791  0.00  0.00    -0.060 I 
ATOM     10  F2  UNL d   1       5.993  -0.034  -2.781  0.00  0.00    -0.096 F 
ATOM     11  F3  UNL d   1       4.767  -0.908  -0.530  0.00  0.00    -0.097 F 
ATOM     12  F4  UNL d   1       2.166  -1.730  -0.607  0.00  0.00    -0.092 F 
ENDROOT
TORSDOF 0
ENDMDL
