MODEL 1
REMARK minimizedAffinity 7.80499315
REMARK minimizedRMSD -1
REMARK  0 active torsions:
REMARK  status: ('A' for Active; 'I' for Inactive)
ROOT
ATOM      1  C   UNL d   1      -4.899   2.989   1.269  0.00  0.00     0.124 A 
ATOM      2  C1  UNL d   1      -4.338   1.846   0.716  0.00  0.00     0.062 A 
ATOM      3  C2  UNL d   1      -4.333   1.667  -0.665  0.00  0.00     0.162 A 
ATOM      4  C3  UNL d   1      -4.891   2.633  -1.502  0.00  0.00    -0.034 A 
ATOM      5  C4  UNL d   1      -5.455   3.779  -0.937  0.00  0.00     0.162 A 
ATOM      6  C5  UNL d   1      -5.457   3.954   0.443  0.00  0.00     0.062 A 
ATOM      7  F   UNL d   1      -6.000   5.058   0.976  0.00  0.00    -0.097 F 
ATOM      8  F1  UNL d   1      -6.000   4.728  -1.713  0.00  0.00    -0.096 F 
ATOM      9  I   UNL d   1      -4.886   2.369  -3.566  0.00  0.00    -0.060 I 
ATOM     10  F2  UNL d   1      -3.784   0.554  -1.172  0.00  0.00    -0.096 F 
ATOM     11  F3  UNL d   1      -3.799   0.912   1.512  0.00  0.00    -0.097 F 
ATOM     12  F4  UNL d   1      -4.903   3.158   2.598  0.00  0.00    -0.092 F 
ENDROOT
TORSDOF 0
ENDMDL
