MODEL 1
REMARK minimizedAffinity 9.57402229
REMARK minimizedRMSD -1
REMARK  0 active torsions:
REMARK  status: ('A' for Active; 'I' for Inactive)
ROOT
ATOM      1  C   UNL d   1       2.972   0.607   0.965  0.00  0.00     0.124 A 
ATOM      2  C1  UNL d   1       4.143  -0.119   1.134  0.00  0.00     0.062 A 
ATOM      3  C2  UNL d   1       4.153  -1.253   1.941  0.00  0.00     0.162 A 
ATOM      4  C3  UNL d   1       2.988  -1.668   2.585  0.00  0.00    -0.034 A 
ATOM      5  C4  UNL d   1       1.814  -0.932   2.412  0.00  0.00     0.162 A 
ATOM      6  C5  UNL d   1       1.809   0.200   1.604  0.00  0.00     0.062 A 
ATOM      7  F   UNL d   1       0.677   0.901   1.442  0.00  0.00    -0.097 F 
ATOM      8  F1  UNL d   1       0.676  -1.304   3.016  0.00  0.00    -0.096 F 
ATOM      9  I   UNL d   1       2.999  -3.363   3.793  0.00  0.00    -0.060 I 
ATOM     10  F2  UNL d   1       5.299  -1.935   2.086  0.00  0.00    -0.096 F 
ATOM     11  F3  UNL d   1       5.268   0.273   0.518  0.00  0.00    -0.097 F 
ATOM     12  F4  UNL d   1       2.965   1.699   0.189  0.00  0.00    -0.092 F 
ENDROOT
TORSDOF 0
ENDMDL
