MODEL 1
REMARK minimizedAffinity 15.7341499
REMARK minimizedRMSD -1
REMARK  0 active torsions:
REMARK  status: ('A' for Active; 'I' for Inactive)
ROOT
ATOM      1  C   UNL d   1      -2.824   1.312  -1.624  0.00  0.00     0.124 A 
ATOM      2  C1  UNL d   1      -2.609   1.813  -0.347  0.00  0.00     0.062 A 
ATOM      3  C2  UNL d   1      -3.513   2.710   0.214  0.00  0.00     0.162 A 
ATOM      4  C3  UNL d   1      -4.643   3.110  -0.500  0.00  0.00    -0.034 A 
ATOM      5  C4  UNL d   1      -4.852   2.602  -1.783  0.00  0.00     0.162 A 
ATOM      6  C5  UNL d   1      -3.945   1.706  -2.340  0.00  0.00     0.062 A 
ATOM      7  F   UNL d   1      -4.155   1.223  -3.573  0.00  0.00    -0.097 F 
ATOM      8  F1  UNL d   1      -5.928   2.965  -2.497  0.00  0.00    -0.096 F 
ATOM      9  I   UNL d   1      -5.998   4.450   0.337  0.00  0.00    -0.060 I 
ATOM     10  F2  UNL d   1      -3.280   3.178   1.449  0.00  0.00    -0.096 F 
ATOM     11  F3  UNL d   1      -1.526   1.435   0.346  0.00  0.00    -0.097 F 
ATOM     12  F4  UNL d   1      -1.951   0.450  -2.162  0.00  0.00    -0.092 F 
ENDROOT
TORSDOF 0
ENDMDL
