MODEL 1
REMARK minimizedAffinity 15.2762957
REMARK minimizedRMSD -1
REMARK  0 active torsions:
REMARK  status: ('A' for Active; 'I' for Inactive)
ROOT
ATOM      1  C   UNL d   1       1.849  -2.502   2.327  0.00  0.00     0.124 A 
ATOM      2  C1  UNL d   1       2.298  -3.815   2.316  0.00  0.00     0.062 A 
ATOM      3  C2  UNL d   1       1.789  -4.737   3.226  0.00  0.00     0.162 A 
ATOM      4  C3  UNL d   1       0.823  -4.349   4.155  0.00  0.00    -0.034 A 
ATOM      5  C4  UNL d   1       0.377  -3.026   4.161  0.00  0.00     0.162 A 
ATOM      6  C5  UNL d   1       0.889  -2.109   3.249  0.00  0.00     0.062 A 
ATOM      7  F   UNL d   1       0.453  -0.840   3.261  0.00  0.00    -0.097 F 
ATOM      8  F1  UNL d   1      -0.551  -2.619   5.040  0.00  0.00    -0.096 F 
ATOM      9  I   UNL d   1       0.059  -5.724   5.517  0.00  0.00    -0.060 I 
ATOM     10  F2  UNL d   1       2.241  -5.999   3.193  0.00  0.00    -0.096 F 
ATOM     11  F3  UNL d   1       3.226  -4.197   1.427  0.00  0.00    -0.097 F 
ATOM     12  F4  UNL d   1       2.341  -1.617   1.451  0.00  0.00    -0.092 F 
ENDROOT
TORSDOF 0
ENDMDL
