MODEL 1
REMARK minimizedAffinity 19.3156624
REMARK minimizedRMSD -1
REMARK  0 active torsions:
REMARK  status: ('A' for Active; 'I' for Inactive)
ROOT
ATOM      1  C   UNL d   1       2.972  -2.697   3.651  0.00  0.00     0.124 A 
ATOM      2  C1  UNL d   1       3.505  -3.652   4.505  0.00  0.00     0.062 A 
ATOM      3  C2  UNL d   1       2.667  -4.538   5.176  0.00  0.00     0.162 A 
ATOM      4  C3  UNL d   1       1.285  -4.473   4.995  0.00  0.00    -0.034 A 
ATOM      5  C4  UNL d   1       0.756  -3.509   4.135  0.00  0.00     0.162 A 
ATOM      6  C5  UNL d   1       1.598  -2.627   3.466  0.00  0.00     0.062 A 
ATOM      7  F   UNL d   1       1.081  -1.705   2.641  0.00  0.00    -0.097 F 
ATOM      8  F1  UNL d   1      -0.568  -3.419   3.937  0.00  0.00    -0.096 F 
ATOM      9  I   UNL d   1       0.028  -5.795   5.996  0.00  0.00    -0.060 I 
ATOM     10  F2  UNL d   1       3.210  -5.450   5.995  0.00  0.00    -0.096 F 
ATOM     11  F3  UNL d   1       4.832  -3.722   4.686  0.00  0.00    -0.097 F 
ATOM     12  F4  UNL d   1       3.781  -1.846   3.007  0.00  0.00    -0.092 F 
ENDROOT
TORSDOF 0
ENDMDL
