MODEL 1
REMARK minimizedAffinity -2.16758561
REMARK minimizedRMSD -1
REMARK  0 active torsions:
REMARK  status: ('A' for Active; 'I' for Inactive)
ROOT
ATOM      1  C   UNL d   1       6.000  -4.665   5.994  0.00  0.00     0.020 A 
ATOM      2  C1  UNL d   1       5.482  -5.912   5.644  0.00  0.00     0.020 A 
ATOM      3  C2  UNL d   1       4.440  -5.999   4.718  0.00  0.00     0.034 A 
ATOM      4  C3  UNL d   1       3.913  -4.839   4.139  0.00  0.00     0.017 A 
ATOM      5  C4  UNL d   1       4.434  -3.589   4.491  0.00  0.00     0.017 A 
ATOM      6  C5  UNL d   1       5.477  -3.507   5.419  0.00  0.00     0.034 A 
ATOM      7 Cl   UNL d   1       3.836  -2.113   3.820  0.00  0.00    -0.070 Cl
ATOM      8 Cl1  UNL d   1       2.626  -5.022   3.001  0.00  0.00    -0.070 Cl
ENDROOT
TORSDOF 0
ENDMDL
