MODEL 1
REMARK minimizedAffinity 8.70620251
REMARK minimizedRMSD -1
REMARK  0 active torsions:
REMARK  status: ('A' for Active; 'I' for Inactive)
ROOT
ATOM      1  C   UNL d   1      -2.524   5.595   6.000  0.00  0.00     0.020 A 
ATOM      2  C1  UNL d   1      -1.762   4.635   5.335  0.00  0.00     0.020 A 
ATOM      3  C2  UNL d   1      -2.227   4.079   4.142  0.00  0.00     0.034 A 
ATOM      4  C3  UNL d   1      -3.457   4.482   3.610  0.00  0.00     0.017 A 
ATOM      5  C4  UNL d   1      -4.221   5.446   4.278  0.00  0.00     0.017 A 
ATOM      6  C5  UNL d   1      -3.750   6.000   5.472  0.00  0.00     0.034 A 
ATOM      7 Cl   UNL d   1      -5.748   5.994   3.683  0.00  0.00    -0.070 Cl
ATOM      8 Cl1  UNL d   1      -3.971   3.752   2.130  0.00  0.00    -0.070 Cl
ENDROOT
TORSDOF 0
ENDMDL
