MODEL 1
REMARK minimizedAffinity 8.68114853
REMARK minimizedRMSD -1
REMARK  0 active torsions:
REMARK  status: ('A' for Active; 'I' for Inactive)
ROOT
ATOM      1  C   UNL d   1      -2.798   2.549   3.449  0.00  0.00     0.020 A 
ATOM      2  C1  UNL d   1      -2.721   3.427   2.368  0.00  0.00     0.020 A 
ATOM      3  C2  UNL d   1      -2.629   2.926   1.068  0.00  0.00     0.034 A 
ATOM      4  C3  UNL d   1      -2.613   1.545   0.844  0.00  0.00     0.017 A 
ATOM      5  C4  UNL d   1      -2.690   0.664   1.930  0.00  0.00     0.017 A 
ATOM      6  C5  UNL d   1      -2.782   1.171   3.230  0.00  0.00     0.034 A 
ATOM      7 Cl   UNL d   1      -2.676  -1.053   1.733  0.00  0.00    -0.070 Cl
ATOM      8 Cl1  UNL d   1      -2.497   0.996  -0.790  0.00  0.00    -0.070 Cl
ENDROOT
TORSDOF 0
ENDMDL
