MODEL 1
REMARK minimizedAffinity 10.2292728
REMARK minimizedRMSD -1
REMARK  0 active torsions:
REMARK  status: ('A' for Active; 'I' for Inactive)
ROOT
ATOM      1  C   UNL d   1      -1.221   5.603   5.140  0.00  0.00     0.020 A 
ATOM      2  C1  UNL d   1      -2.248   4.668   5.256  0.00  0.00     0.020 A 
ATOM      3  C2  UNL d   1      -2.834   4.129   4.109  0.00  0.00     0.034 A 
ATOM      4  C3  UNL d   1      -2.393   4.524   2.841  0.00  0.00     0.017 A 
ATOM      5  C4  UNL d   1      -1.361   5.463   2.726  0.00  0.00     0.017 A 
ATOM      6  C5  UNL d   1      -0.778   6.000   3.878  0.00  0.00     0.034 A 
ATOM      7 Cl   UNL d   1      -0.763   6.000   1.195  0.00  0.00    -0.070 Cl
ATOM      8 Cl1  UNL d   1      -3.163   3.816   1.466  0.00  0.00    -0.070 Cl
ENDROOT
TORSDOF 0
ENDMDL
