MODEL 1
REMARK minimizedAffinity 8.45149899
REMARK minimizedRMSD -1
REMARK  0 active torsions:
REMARK  status: ('A' for Active; 'I' for Inactive)
ROOT
ATOM      1  C   UNL d   1      -4.116   0.277   2.864  0.00  0.00     0.020 A 
ATOM      2  C1  UNL d   1      -2.972   0.466   3.638  0.00  0.00     0.020 A 
ATOM      3  C2  UNL d   1      -2.521   1.759   3.913  0.00  0.00     0.034 A 
ATOM      4  C3  UNL d   1      -3.214   2.867   3.413  0.00  0.00     0.017 A 
ATOM      5  C4  UNL d   1      -4.362   2.676   2.636  0.00  0.00     0.017 A 
ATOM      6  C5  UNL d   1      -4.809   1.380   2.364  0.00  0.00     0.034 A 
ATOM      7 Cl   UNL d   1      -5.270   3.995   1.985  0.00  0.00    -0.070 Cl
ATOM      8 Cl1  UNL d   1      -2.600   4.437   3.793  0.00  0.00    -0.070 Cl
ENDROOT
TORSDOF 0
ENDMDL
