MODEL 1
REMARK minimizedAffinity 18.6054001
REMARK minimizedRMSD -1
REMARK  0 active torsions:
REMARK  status: ('A' for Active; 'I' for Inactive)
ROOT
ATOM      1  C   UNL d   1      -1.615   5.999   5.709  0.00  0.00     0.020 A 
ATOM      2  C1  UNL d   1      -2.979   5.998   5.996  0.00  0.00     0.020 A 
ATOM      3  C2  UNL d   1      -3.912   5.990   4.957  0.00  0.00     0.034 A 
ATOM      4  C3  UNL d   1      -3.482   5.983   3.625  0.00  0.00     0.017 A 
ATOM      5  C4  UNL d   1      -2.112   5.984   3.338  0.00  0.00     0.017 A 
ATOM      6  C5  UNL d   1      -1.182   5.992   4.382  0.00  0.00     0.034 A 
ATOM      7 Cl   UNL d   1      -1.505   5.976   1.719  0.00  0.00    -0.070 Cl
ATOM      8 Cl1  UNL d   1      -4.690   5.973   2.390  0.00  0.00    -0.070 Cl
ENDROOT
TORSDOF 0
ENDMDL
