MODEL 1
REMARK minimizedAffinity 1.45807338
REMARK minimizedRMSD -1
REMARK  0 active torsions:
REMARK  status: ('A' for Active; 'I' for Inactive)
ROOT
ATOM      1  C   UNL d   1       2.120   2.305  -6.000  0.00  0.00     0.020 A 
ATOM      2  C1  UNL d   1       0.807   1.861  -5.845  0.00  0.00     0.020 A 
ATOM      3  C2  UNL d   1       0.372   1.388  -4.605  0.00  0.00     0.034 A 
ATOM      4  C3  UNL d   1       1.250   1.357  -3.516  0.00  0.00     0.017 A 
ATOM      5  C4  UNL d   1       2.568   1.803  -3.672  0.00  0.00     0.017 A 
ATOM      6  C5  UNL d   1       2.998   2.276  -4.916  0.00  0.00     0.034 A 
ATOM      7 Cl   UNL d   1       3.709   1.795  -2.375  0.00  0.00    -0.070 Cl
ATOM      8 Cl1  UNL d   1       0.645   0.759  -2.012  0.00  0.00    -0.070 Cl
ENDROOT
TORSDOF 0
ENDMDL
