MODEL 1
REMARK minimizedAffinity 10.5442619
REMARK minimizedRMSD -1
REMARK  0 active torsions:
REMARK  status: ('A' for Active; 'I' for Inactive)
ROOT
ATOM      1  C   UNL d   1       5.907   4.856   3.797  0.00  0.00     0.020 A 
ATOM      2  C1  UNL d   1       4.893   5.657   4.320  0.00  0.00     0.020 A 
ATOM      3  C2  UNL d   1       3.795   5.999   3.528  0.00  0.00     0.034 A 
ATOM      4  C3  UNL d   1       3.708   5.539   2.209  0.00  0.00     0.017 A 
ATOM      5  C4  UNL d   1       4.727   4.734   1.685  0.00  0.00     0.017 A 
ATOM      6  C5  UNL d   1       5.824   4.396   2.482  0.00  0.00     0.034 A 
ATOM      7 Cl   UNL d   1       4.690   4.129   0.066  0.00  0.00    -0.070 Cl
ATOM      8 Cl1  UNL d   1       2.322   6.000   1.286  0.00  0.00    -0.070 Cl
ENDROOT
TORSDOF 0
ENDMDL
