MODEL 1
REMARK minimizedAffinity 16.1102695
REMARK minimizedRMSD -1
REMARK  0 active torsions:
REMARK  status: ('A' for Active; 'I' for Inactive)
ROOT
ATOM      1  C   UNL d   1      -3.457  -0.963   4.967  0.00  0.00     0.020 A 
ATOM      2  C1  UNL d   1      -3.491  -0.026   5.999  0.00  0.00     0.020 A 
ATOM      3  C2  UNL d   1      -3.133   1.300   5.750  0.00  0.00     0.034 A 
ATOM      4  C3  UNL d   1      -2.740   1.694   4.465  0.00  0.00     0.017 A 
ATOM      5  C4  UNL d   1      -2.706   0.752   3.430  0.00  0.00     0.017 A 
ATOM      6  C5  UNL d   1      -3.066  -0.575   3.686  0.00  0.00     0.034 A 
ATOM      7 Cl   UNL d   1      -2.232   1.162   1.820  0.00  0.00    -0.070 Cl
ATOM      8 Cl1  UNL d   1      -2.311   3.350   4.228  0.00  0.00    -0.070 Cl
ENDROOT
TORSDOF 0
ENDMDL
