MODEL 1
REMARK minimizedAffinity 8.87853718
REMARK minimizedRMSD -1
REMARK  0 active torsions:
REMARK  status: ('A' for Active; 'I' for Inactive)
ROOT
ATOM      1  C   UNL d   1      -1.594   0.821   2.800  0.00  0.00     0.020 A 
ATOM      2  C1  UNL d   1      -2.124  -0.446   2.556  0.00  0.00     0.020 A 
ATOM      3  C2  UNL d   1      -3.472  -0.585   2.222  0.00  0.00     0.034 A 
ATOM      4  C3  UNL d   1      -4.295   0.543   2.130  0.00  0.00     0.017 A 
ATOM      5  C4  UNL d   1      -3.762   1.814   2.375  0.00  0.00     0.017 A 
ATOM      6  C5  UNL d   1      -2.411   1.948   2.710  0.00  0.00     0.034 A 
ATOM      7 Cl   UNL d   1      -4.715   3.253   2.281  0.00  0.00    -0.070 Cl
ATOM      8 Cl1  UNL d   1      -5.954   0.297   1.712  0.00  0.00    -0.070 Cl
ENDROOT
TORSDOF 0
ENDMDL
