MODEL 1
REMARK minimizedAffinity 15.7360144
REMARK minimizedRMSD -1
REMARK  0 active torsions:
REMARK  status: ('A' for Active; 'I' for Inactive)
ROOT
ATOM      1  C   UNL d   1       1.626  -0.915  -1.811  0.00  0.00     0.020 A 
ATOM      2  C1  UNL d   1       1.151   0.224  -2.460  0.00  0.00     0.020 A 
ATOM      3  C2  UNL d   1       0.632   0.126  -3.752  0.00  0.00     0.034 A 
ATOM      4  C3  UNL d   1       0.587  -1.114  -4.401  0.00  0.00     0.017 A 
ATOM      5  C4  UNL d   1       1.064  -2.257  -3.749  0.00  0.00     0.017 A 
ATOM      6  C5  UNL d   1       1.583  -2.153  -2.454  0.00  0.00     0.034 A 
ATOM      7 Cl   UNL d   1       1.042  -3.820  -4.485  0.00  0.00    -0.070 Cl
ATOM      8 Cl1  UNL d   1      -0.068  -1.161  -5.999  0.00  0.00    -0.070 Cl
ENDROOT
TORSDOF 0
ENDMDL
