MODEL 1
REMARK minimizedAffinity 9.04310894
REMARK minimizedRMSD -1
REMARK  0 active torsions:
REMARK  status: ('A' for Active; 'I' for Inactive)
ROOT
ATOM      1  C   UNL d   1       1.700  -1.376  -2.038  0.00  0.00     0.020 A 
ATOM      2  C1  UNL d   1       0.971  -2.523  -1.725  0.00  0.00     0.020 A 
ATOM      3  C2  UNL d   1      -0.395  -2.428  -1.454  0.00  0.00     0.034 A 
ATOM      4  C3  UNL d   1      -1.037  -1.185  -1.494  0.00  0.00     0.017 A 
ATOM      5  C4  UNL d   1      -0.304  -0.035  -1.808  0.00  0.00     0.017 A 
ATOM      6  C5  UNL d   1       1.064  -0.135  -2.079  0.00  0.00     0.034 A 
ATOM      7 Cl   UNL d   1      -1.026   1.534  -1.877  0.00  0.00    -0.070 Cl
ATOM      8 Cl1  UNL d   1      -2.729  -1.142  -1.148  0.00  0.00    -0.070 Cl
ENDROOT
TORSDOF 0
ENDMDL
