MODEL 1
REMARK minimizedAffinity 5.1827302
REMARK minimizedRMSD -1
REMARK  0 active torsions:
REMARK  status: ('A' for Active; 'I' for Inactive)
ROOT
ATOM      1  C   UNL d   1      -5.994  -0.966   0.710  0.00  0.00     0.020 A 
ATOM      2  C1  UNL d   1      -5.770  -0.700  -0.640  0.00  0.00     0.020 A 
ATOM      3  C2  UNL d   1      -4.527  -0.221  -1.060  0.00  0.00     0.034 A 
ATOM      4  C3  UNL d   1      -3.504  -0.006  -0.130  0.00  0.00     0.017 A 
ATOM      5  C4  UNL d   1      -3.730  -0.273   1.226  0.00  0.00     0.017 A 
ATOM      6  C5  UNL d   1      -4.976  -0.753   1.641  0.00  0.00     0.034 A 
ATOM      7 Cl   UNL d   1      -2.517  -0.033   2.432  0.00  0.00    -0.070 Cl
ATOM      8 Cl1  UNL d   1      -1.993   0.588  -0.720  0.00  0.00    -0.070 Cl
ENDROOT
TORSDOF 0
ENDMDL
