MODEL 1
REMARK minimizedAffinity 10.1469641
REMARK minimizedRMSD -1
REMARK  0 active torsions:
REMARK  status: ('A' for Active; 'I' for Inactive)
ROOT
ATOM      1  C   UNL d   1      -1.874   0.999   3.030  0.00  0.00     0.020 A 
ATOM      2  C1  UNL d   1      -2.809  -0.024   3.174  0.00  0.00     0.020 A 
ATOM      3  C2  UNL d   1      -3.076  -0.882   2.105  0.00  0.00     0.034 A 
ATOM      4  C3  UNL d   1      -2.407  -0.717   0.886  0.00  0.00     0.017 A 
ATOM      5  C4  UNL d   1      -1.468   0.310   0.743  0.00  0.00     0.017 A 
ATOM      6  C5  UNL d   1      -1.204   1.166   1.817  0.00  0.00     0.034 A 
ATOM      7 Cl   UNL d   1      -0.602   0.576  -0.730  0.00  0.00    -0.070 Cl
ATOM      8 Cl1  UNL d   1      -2.787  -1.815  -0.393  0.00  0.00    -0.070 Cl
ENDROOT
TORSDOF 0
ENDMDL
