MODEL 1
REMARK minimizedAffinity 7.81560469
REMARK minimizedRMSD -1
REMARK  0 active torsions:
REMARK  status: ('A' for Active; 'I' for Inactive)
ROOT
ATOM      1  C   UNL d   1       0.601   0.593  -3.186  0.00  0.00     0.020 A 
ATOM      2  C1  UNL d   1       0.614  -0.654  -2.564  0.00  0.00     0.020 A 
ATOM      3  C2  UNL d   1      -0.356  -0.969  -1.609  0.00  0.00     0.034 A 
ATOM      4  C3  UNL d   1      -1.342  -0.034  -1.273  0.00  0.00     0.017 A 
ATOM      5  C4  UNL d   1      -1.354   1.218  -1.898  0.00  0.00     0.017 A 
ATOM      6  C5  UNL d   1      -0.381   1.528  -2.854  0.00  0.00     0.034 A 
ATOM      7 Cl   UNL d   1      -2.540   2.423  -1.537  0.00  0.00    -0.070 Cl
ATOM      8 Cl1  UNL d   1      -2.510  -0.490  -0.084  0.00  0.00    -0.070 Cl
ENDROOT
TORSDOF 0
ENDMDL
