MODEL 1
REMARK minimizedAffinity 6.2578187
REMARK minimizedRMSD -1
REMARK  0 active torsions:
REMARK  status: ('A' for Active; 'I' for Inactive)
ROOT
ATOM      1  C   UNL d   1      -2.549   0.699   4.397  0.00  0.00     0.020 A 
ATOM      2  C1  UNL d   1      -2.546   0.749   3.004  0.00  0.00     0.020 A 
ATOM      3  C2  UNL d   1      -3.620   0.221   2.284  0.00  0.00     0.034 A 
ATOM      4  C3  UNL d   1      -4.701  -0.360   2.958  0.00  0.00     0.017 A 
ATOM      5  C4  UNL d   1      -4.702  -0.410   4.356  0.00  0.00     0.017 A 
ATOM      6  C5  UNL d   1      -3.624   0.121   5.072  0.00  0.00     0.034 A 
ATOM      7 Cl   UNL d   1      -6.000  -1.111   5.258  0.00  0.00    -0.070 Cl
ATOM      8 Cl1  UNL d   1      -5.995  -0.994   2.004  0.00  0.00    -0.070 Cl
ENDROOT
TORSDOF 0
ENDMDL
