MODEL 1
REMARK minimizedAffinity -1.41120028
REMARK minimizedRMSD -1
REMARK  0 active torsions:
REMARK  status: ('A' for Active; 'I' for Inactive)
ROOT
ATOM      1  C   UNL d   1      -1.345   1.180   2.698  0.00  0.00     0.020 A 
ATOM      2  C1  UNL d   1      -2.545   0.498   2.897  0.00  0.00     0.020 A 
ATOM      3  C2  UNL d   1      -3.100  -0.256   1.860  0.00  0.00     0.034 A 
ATOM      4  C3  UNL d   1      -2.455  -0.330   0.620  0.00  0.00     0.017 A 
ATOM      5  C4  UNL d   1      -1.251   0.355   0.422  0.00  0.00     0.017 A 
ATOM      6  C5  UNL d   1      -0.700   1.109   1.463  0.00  0.00     0.034 A 
ATOM      7 Cl   UNL d   1      -0.396   0.312  -1.080  0.00  0.00    -0.070 Cl
ATOM      8 Cl1  UNL d   1      -3.197  -1.281  -0.616  0.00  0.00    -0.070 Cl
ENDROOT
TORSDOF 0
ENDMDL
