MODEL 1
REMARK minimizedAffinity 11.5852957
REMARK minimizedRMSD -1
REMARK  0 active torsions:
REMARK  status: ('A' for Active; 'I' for Inactive)
ROOT
ATOM      1  C   UNL d   1       1.371   5.982  -4.079  0.00  0.00     0.020 A 
ATOM      2  C1  UNL d   1       2.654   5.988  -3.533  0.00  0.00     0.020 A 
ATOM      3  C2  UNL d   1       2.822   5.993  -2.146  0.00  0.00     0.034 A 
ATOM      4  C3  UNL d   1       1.705   5.993  -1.302  0.00  0.00     0.017 A 
ATOM      5  C4  UNL d   1       0.418   5.987  -1.852  0.00  0.00     0.017 A 
ATOM      6  C5  UNL d   1       0.256   5.982  -3.240  0.00  0.00     0.034 A 
ATOM      7 Cl   UNL d   1      -1.007   5.987  -0.874  0.00  0.00    -0.070 Cl
ATOM      8 Cl1  UNL d   1       1.988   5.999   0.403  0.00  0.00    -0.070 Cl
ENDROOT
TORSDOF 0
ENDMDL
