MODEL 1
REMARK minimizedAffinity 6.15806675
REMARK minimizedRMSD -1
REMARK  0 active torsions:
REMARK  status: ('A' for Active; 'I' for Inactive)
ROOT
ATOM      1  C4' PXY d   1       2.512  -5.015  -1.488  0.00  0.00     0.077 C 
ATOM      2  C1' PXY d   1       5.991  -5.997  -5.999  0.00  0.00     0.077 C 
ATOM      3  C1  PXY d   1       5.072  -5.731  -4.823  0.00  0.00    -0.082 A 
ATOM      4  C2  PXY d   1       5.486  -6.000  -3.595  0.00  0.00     0.003 A 
ATOM      5  C3  PXY d   1       4.657  -5.795  -2.523  0.00  0.00     0.003 A 
ATOM      6  C4  PXY d   1       3.410  -5.260  -2.704  0.00  0.00    -0.082 A 
ATOM      7  C5  PXY d   1       2.984  -4.972  -3.953  0.00  0.00     0.003 A 
ATOM      8  C6  PXY d   1       3.826  -5.226  -5.031  0.00  0.00     0.003 A 
ENDROOT
TORSDOF 0
ENDMDL
