MODEL 1
REMARK minimizedAffinity -0.834241509
REMARK minimizedRMSD -1
REMARK  0 active torsions:
REMARK  status: ('A' for Active; 'I' for Inactive)
ROOT
ATOM      1  C4' PXY d   1       5.981  -5.076  -2.431  0.00  0.00     0.077 C 
ATOM      2  C1' PXY d   1       1.529  -6.000  -5.999  0.00  0.00     0.077 C 
ATOM      3  C1  PXY d   1       2.689  -5.749  -5.057  0.00  0.00    -0.082 A 
ATOM      4  C2  PXY d   1       3.925  -5.989  -5.463  0.00  0.00     0.003 A 
ATOM      5  C3  PXY d   1       4.984  -5.798  -4.613  0.00  0.00     0.003 A 
ATOM      6  C4  PXY d   1       4.780  -5.306  -3.352  0.00  0.00    -0.082 A 
ATOM      7  C5  PXY d   1       3.522  -5.049  -2.933  0.00  0.00     0.003 A 
ATOM      8  C6  PXY d   1       2.458  -5.288  -3.798  0.00  0.00     0.003 A 
ENDROOT
TORSDOF 0
ENDMDL
