MODEL 1
REMARK minimizedAffinity 1.03277171
REMARK minimizedRMSD -1
REMARK  0 active torsions:
REMARK  status: ('A' for Active; 'I' for Inactive)
ROOT
ATOM      1  C4' PXY d   1       2.153  -5.988  -1.389  0.00  0.00     0.077 C 
ATOM      2  C1' PXY d   1       5.637  -5.852  -6.000  0.00  0.00     0.077 C 
ATOM      3  C1  PXY d   1       4.714  -5.883  -4.798  0.00  0.00    -0.082 A 
ATOM      4  C2  PXY d   1       5.226  -5.863  -3.578  0.00  0.00     0.003 A 
ATOM      5  C3  PXY d   1       4.407  -5.923  -2.480  0.00  0.00     0.003 A 
ATOM      6  C4  PXY d   1       3.047  -5.949  -2.632  0.00  0.00    -0.082 A 
ATOM      7  C5  PXY d   1       2.515  -5.959  -3.873  0.00  0.00     0.003 A 
ATOM      8  C6  PXY d   1       3.366  -5.939  -4.975  0.00  0.00     0.003 A 
ENDROOT
TORSDOF 0
ENDMDL
