MODEL 1
REMARK minimizedAffinity 4.40717554
REMARK minimizedRMSD -1
REMARK  0 active torsions:
REMARK  status: ('A' for Active; 'I' for Inactive)
ROOT
ATOM      1  C4' PXY d   1       2.362  -5.626  -1.142  0.00  0.00     0.077 C 
ATOM      2  C1' PXY d   1       5.480  -5.937  -6.000  0.00  0.00     0.077 C 
ATOM      3  C1  PXY d   1       4.653  -5.849  -4.732  0.00  0.00    -0.082 A 
ATOM      4  C2  PXY d   1       5.248  -5.950  -3.555  0.00  0.00     0.003 A 
ATOM      5  C3  PXY d   1       4.511  -5.904  -2.399  0.00  0.00     0.003 A 
ATOM      6  C4  PXY d   1       3.158  -5.700  -2.448  0.00  0.00    -0.082 A 
ATOM      7  C5  PXY d   1       2.545  -5.586  -3.645  0.00  0.00     0.003 A 
ATOM      8  C6  PXY d   1       3.305  -5.676  -4.808  0.00  0.00     0.003 A 
ENDROOT
TORSDOF 0
ENDMDL
