MODEL 1
REMARK minimizedAffinity -0.0581548996
REMARK minimizedRMSD -1
REMARK  0 active torsions:
REMARK  status: ('A' for Active; 'I' for Inactive)
ROOT
ATOM      1  C4' PXY d   1       1.018  -5.192  -6.000  0.00  0.00     0.077 C 
ATOM      2  C1' PXY d   1       5.930  -5.834  -3.021  0.00  0.00     0.077 C 
ATOM      3  C1  PXY d   1       4.649  -5.662  -3.813  0.00  0.00    -0.082 A 
ATOM      4  C2  PXY d   1       3.506  -5.470  -3.174  0.00  0.00     0.003 A 
ATOM      5  C3  PXY d   1       2.333  -5.344  -3.873  0.00  0.00     0.003 A 
ATOM      6  C4  PXY d   1       2.338  -5.361  -5.242  0.00  0.00    -0.082 A 
ATOM      7  C5  PXY d   1       3.501  -5.546  -5.901  0.00  0.00     0.003 A 
ATOM      8  C6  PXY d   1       4.675  -5.713  -5.172  0.00  0.00     0.003 A 
ENDROOT
TORSDOF 0
ENDMDL
