MODEL 1
REMARK minimizedAffinity -0.83184284
REMARK minimizedRMSD -1
REMARK  0 active torsions:
REMARK  status: ('A' for Active; 'I' for Inactive)
ROOT
ATOM      1  C4' PXY d   1       2.103  -5.109  -5.997  0.00  0.00     0.077 C 
ATOM      2  C1' PXY d   1       6.000  -6.000  -1.822  0.00  0.00     0.077 C 
ATOM      3  C1  PXY d   1       4.987  -5.762  -2.925  0.00  0.00    -0.082 A 
ATOM      4  C2  PXY d   1       3.717  -5.558  -2.614  0.00  0.00     0.003 A 
ATOM      5  C3  PXY d   1       2.783  -5.373  -3.601  0.00  0.00     0.003 A 
ATOM      6  C4  PXY d   1       3.161  -5.344  -4.916  0.00  0.00    -0.082 A 
ATOM      7  C5  PXY d   1       4.457  -5.541  -5.241  0.00  0.00     0.003 A 
ATOM      8  C6  PXY d   1       5.383  -5.768  -4.227  0.00  0.00     0.003 A 
ENDROOT
TORSDOF 0
ENDMDL
