MODEL 1
REMARK minimizedAffinity 2.87768006
REMARK minimizedRMSD -1
REMARK  0 active torsions:
REMARK  status: ('A' for Active; 'I' for Inactive)
ROOT
ATOM      1  C4' PXY d   1      -6.000   3.455  -5.999  0.00  0.00     0.077 C 
ATOM      2  C1' PXY d   1      -0.581   2.087  -4.522  0.00  0.00     0.077 C 
ATOM      3  C1  PXY d   1      -2.006   2.433  -4.907  0.00  0.00    -0.082 A 
ATOM      4  C2  PXY d   1      -2.239   3.491  -5.668  0.00  0.00     0.003 A 
ATOM      5  C3  PXY d   1      -3.524   3.837  -6.000  0.00  0.00     0.003 A 
ATOM      6  C4  PXY d   1      -4.577   3.062  -5.593  0.00  0.00    -0.082 A 
ATOM      7  C5  PXY d   1      -4.346   1.976  -4.825  0.00  0.00     0.003 A 
ATOM      8  C6  PXY d   1      -3.038   1.665  -4.465  0.00  0.00     0.003 A 
ENDROOT
TORSDOF 0
ENDMDL
