MODEL 1
REMARK minimizedAffinity -0.594413757
REMARK minimizedRMSD -1
REMARK  0 active torsions:
REMARK  status: ('A' for Active; 'I' for Inactive)
ROOT
ATOM      1  C4' PXY d   1       5.998  -5.581  -5.999  0.00  0.00     0.077 C 
ATOM      2  C1' PXY d   1       2.832  -5.943  -1.176  0.00  0.00     0.077 C 
ATOM      3  C1  PXY d   1       3.653  -5.854  -2.448  0.00  0.00    -0.082 A 
ATOM      4  C2  PXY d   1       4.968  -5.735  -2.370  0.00  0.00     0.003 A 
ATOM      5  C3  PXY d   1       5.723  -5.621  -3.509  0.00  0.00     0.003 A 
ATOM      6  C4  PXY d   1       5.130  -5.684  -4.742  0.00  0.00    -0.082 A 
ATOM      7  C5  PXY d   1       3.790  -5.816  -4.830  0.00  0.00     0.003 A 
ATOM      8  C6  PXY d   1       3.037  -5.888  -3.661  0.00  0.00     0.003 A 
ENDROOT
TORSDOF 0
ENDMDL
