MODEL 1
REMARK minimizedAffinity 5.18484592
REMARK minimizedRMSD -1
REMARK  0 active torsions:
REMARK  status: ('A' for Active; 'I' for Inactive)
ROOT
ATOM      1  C4' PXY d   1       1.929  -4.365  -5.997  0.00  0.00     0.077 C 
ATOM      2  C1' PXY d   1       6.000  -6.000  -2.232  0.00  0.00     0.077 C 
ATOM      3  C1  PXY d   1       4.924  -5.581  -3.215  0.00  0.00    -0.082 A 
ATOM      4  C2  PXY d   1       5.262  -4.926  -4.314  0.00  0.00     0.003 A 
ATOM      5  C3  PXY d   1       4.299  -4.511  -5.198  0.00  0.00     0.003 A 
ATOM      6  C4  PXY d   1       2.982  -4.817  -4.981  0.00  0.00    -0.082 A 
ATOM      7  C5  PXY d   1       2.630  -5.494  -3.867  0.00  0.00     0.003 A 
ATOM      8  C6  PXY d   1       3.619  -5.870  -2.962  0.00  0.00     0.003 A 
ENDROOT
TORSDOF 0
ENDMDL
