MODEL 1
REMARK minimizedAffinity -0.884199917
REMARK minimizedRMSD -1
REMARK  0 active torsions:
REMARK  status: ('A' for Active; 'I' for Inactive)
ROOT
ATOM      1  C4' PXY d   1      -0.389   3.007  -4.499  0.00  0.00     0.077 C 
ATOM      2  C1' PXY d   1      -5.999   3.370  -5.845  0.00  0.00     0.077 C 
ATOM      3  C1  PXY d   1      -4.528   3.288  -5.489  0.00  0.00    -0.082 A 
ATOM      4  C2  PXY d   1      -3.785   2.320  -6.000  0.00  0.00     0.003 A 
ATOM      5  C3  PXY d   1      -2.460   2.211  -5.663  0.00  0.00     0.003 A 
ATOM      6  C4  PXY d   1      -1.877   3.135  -4.838  0.00  0.00    -0.082 A 
ATOM      7  C5  PXY d   1      -2.626   4.132  -4.321  0.00  0.00     0.003 A 
ATOM      8  C6  PXY d   1      -3.978   4.200  -4.642  0.00  0.00     0.003 A 
ENDROOT
TORSDOF 0
ENDMDL
