MODEL 1
REMARK minimizedAffinity -0.00677326601
REMARK minimizedRMSD -1
REMARK  0 active torsions:
REMARK  status: ('A' for Active; 'I' for Inactive)
ROOT
ATOM      1  C4' PXY d   1       1.347  -5.980  -5.994  0.00  0.00     0.077 C 
ATOM      2  C1' PXY d   1       5.999  -4.437  -2.929  0.00  0.00     0.077 C 
ATOM      3  C1  PXY d   1       4.775  -4.849  -3.723  0.00  0.00    -0.082 A 
ATOM      4  C2  PXY d   1       4.793  -4.764  -5.044  0.00  0.00     0.003 A 
ATOM      5  C3  PXY d   1       3.684  -5.103  -5.775  0.00  0.00     0.003 A 
ATOM      6  C4  PXY d   1       2.563  -5.583  -5.153  0.00  0.00    -0.082 A 
ATOM      7  C5  PXY d   1       2.541  -5.683  -3.806  0.00  0.00     0.003 A 
ATOM      8  C6  PXY d   1       3.662  -5.295  -3.079  0.00  0.00     0.003 A 
ENDROOT
TORSDOF 0
ENDMDL
