MODEL 1
REMARK minimizedAffinity 2.20667219
REMARK minimizedRMSD -1
REMARK  0 active torsions:
REMARK  status: ('A' for Active; 'I' for Inactive)
ROOT
ATOM      1  C4' PXY d   1      -0.428   3.421  -4.514  0.00  0.00     0.077 C 
ATOM      2  C1' PXY d   1      -5.999   2.993  -5.996  0.00  0.00     0.077 C 
ATOM      3  C1  PXY d   1      -4.540   3.098  -5.597  0.00  0.00    -0.082 A 
ATOM      4  C2  PXY d   1      -3.826   4.137  -5.997  0.00  0.00     0.003 A 
ATOM      5  C3  PXY d   1      -2.497   4.231  -5.672  0.00  0.00     0.003 A 
ATOM      6  C4  PXY d   1      -1.907   3.279  -4.885  0.00  0.00    -0.082 A 
ATOM      7  C5  PXY d   1      -2.632   2.221  -4.464  0.00  0.00     0.003 A 
ATOM      8  C6  PXY d   1      -3.969   2.123  -4.839  0.00  0.00     0.003 A 
ENDROOT
TORSDOF 0
ENDMDL
