MODEL 1
REMARK minimizedAffinity -1.71612322
REMARK minimizedRMSD -1
REMARK  0 active torsions:
REMARK  status: ('A' for Active; 'I' for Inactive)
ROOT
ATOM      1  C4' PXY d   1       2.131  -5.999  -1.746  0.00  0.00     0.077 C 
ATOM      2  C1' PXY d   1       5.976  -5.267  -5.999  0.00  0.00     0.077 C 
ATOM      3  C1  PXY d   1       4.958  -5.457  -4.892  0.00  0.00    -0.082 A 
ATOM      4  C2  PXY d   1       5.317  -5.265  -3.633  0.00  0.00     0.003 A 
ATOM      5  C3  PXY d   1       4.418  -5.463  -2.618  0.00  0.00     0.003 A 
ATOM      6  C4  PXY d   1       3.123  -5.810  -2.897  0.00  0.00    -0.082 A 
ATOM      7  C5  PXY d   1       2.746  -5.997  -4.179  0.00  0.00     0.003 A 
ATOM      8  C6  PXY d   1       3.685  -5.831  -5.193  0.00  0.00     0.003 A 
ENDROOT
TORSDOF 0
ENDMDL
