MODEL 1
REMARK minimizedAffinity -2.64254522
REMARK minimizedRMSD -1
REMARK  0 active torsions:
REMARK  status: ('A' for Active; 'I' for Inactive)
ROOT
ATOM      1  C4' PXY d   1       1.324  -5.999  -5.996  0.00  0.00     0.077 C 
ATOM      2  C1' PXY d   1       5.999  -5.580  -2.623  0.00  0.00     0.077 C 
ATOM      3  C1  PXY d   1       4.766  -5.694  -3.497  0.00  0.00    -0.082 A 
ATOM      4  C2  PXY d   1       4.903  -5.811  -4.808  0.00  0.00     0.003 A 
ATOM      5  C3  PXY d   1       3.798  -5.883  -5.617  0.00  0.00     0.003 A 
ATOM      6  C4  PXY d   1       2.541  -5.890  -5.074  0.00  0.00    -0.082 A 
ATOM      7  C5  PXY d   1       2.394  -5.782  -3.736  0.00  0.00     0.003 A 
ATOM      8  C6  PXY d   1       3.527  -5.669  -2.936  0.00  0.00     0.003 A 
ENDROOT
TORSDOF 0
ENDMDL
