MODEL 1
REMARK minimizedAffinity -0.78977412
REMARK minimizedRMSD -1
REMARK  0 active torsions:
REMARK  status: ('A' for Active; 'I' for Inactive)
ROOT
ATOM      1  C4' PXY d   1      -1.516   3.396   2.973  0.00  0.00     0.077 C 
ATOM      2  C1' PXY d   1       2.885   1.030   0.067  0.00  0.00     0.077 C 
ATOM      3  C1  PXY d   1       1.723   1.649   0.819  0.00  0.00    -0.082 A 
ATOM      4  C2  PXY d   1       1.960   2.461   1.836  0.00  0.00     0.003 A 
ATOM      5  C3  PXY d   1       0.921   3.004   2.547  0.00  0.00     0.003 A 
ATOM      6  C4  PXY d   1      -0.374   2.756   2.179  0.00  0.00    -0.082 A 
ATOM      7  C5  PXY d   1      -0.624   1.938   1.136  0.00  0.00     0.003 A 
ATOM      8  C6  PXY d   1       0.444   1.363   0.453  0.00  0.00     0.003 A 
ENDROOT
TORSDOF 0
ENDMDL
