MODEL 1
REMARK minimizedAffinity -1.32292068
REMARK minimizedRMSD -1
REMARK  0 active torsions:
REMARK  status: ('A' for Active; 'I' for Inactive)
ROOT
ATOM      1  C4' PXY d   1       5.533  -6.000  -6.000  0.00  0.00     0.077 C 
ATOM      2  C1' PXY d   1       2.255  -5.073  -1.330  0.00  0.00     0.077 C 
ATOM      3  C1  PXY d   1       3.125  -5.311  -2.548  0.00  0.00    -0.082 A 
ATOM      4  C2  PXY d   1       2.568  -5.378  -3.747  0.00  0.00     0.003 A 
ATOM      5  C3  PXY d   1       3.336  -5.625  -4.855  0.00  0.00     0.003 A 
ATOM      6  C4  PXY d   1       4.695  -5.751  -4.743  0.00  0.00    -0.082 A 
ATOM      7  C5  PXY d   1       5.272  -5.674  -3.525  0.00  0.00     0.003 A 
ATOM      8  C6  PXY d   1       4.470  -5.464  -2.407  0.00  0.00     0.003 A 
ENDROOT
TORSDOF 0
ENDMDL
