MODEL 1
REMARK minimizedAffinity 1.39692056
REMARK minimizedRMSD -1
REMARK  0 active torsions:
REMARK  status: ('A' for Active; 'I' for Inactive)
ROOT
ATOM      1  C4' PXY d   1      -0.338   2.964  -4.925  0.00  0.00     0.077 C 
ATOM      2  C1' PXY d   1      -6.000   3.419  -5.999  0.00  0.00     0.077 C 
ATOM      3  C1  PXY d   1      -4.518   3.291  -5.708  0.00  0.00    -0.082 A 
ATOM      4  C2  PXY d   1      -3.704   4.293  -6.000  0.00  0.00     0.003 A 
ATOM      5  C3  PXY d   1      -2.357   4.182  -5.773  0.00  0.00     0.003 A 
ATOM      6  C4  PXY d   1      -1.843   3.053  -5.193  0.00  0.00    -0.082 A 
ATOM      7  C5  PXY d   1      -2.668   2.030  -4.882  0.00  0.00     0.003 A 
ATOM      8  C6  PXY d   1      -4.027   2.147  -5.159  0.00  0.00     0.003 A 
ENDROOT
TORSDOF 0
ENDMDL
