MODEL 1
REMARK minimizedAffinity 0.174539849
REMARK minimizedRMSD -1
REMARK  0 active torsions:
REMARK  status: ('A' for Active; 'I' for Inactive)
ROOT
ATOM      1  C4' PXY d   1       2.826   1.995   1.452  0.00  0.00     0.077 C 
ATOM      2  C1' PXY d   1      -2.678   3.348   0.316  0.00  0.00     0.077 C 
ATOM      3  C1  PXY d   1      -1.231   3.004   0.607  0.00  0.00    -0.082 A 
ATOM      4  C2  PXY d   1      -0.900   1.755   0.894  0.00  0.00     0.003 A 
ATOM      5  C3  PXY d   1       0.399   1.432   1.191  0.00  0.00     0.003 A 
ATOM      6  C4  PXY d   1       1.379   2.386   1.142  0.00  0.00    -0.082 A 
ATOM      7  C5  PXY d   1       1.051   3.661   0.840  0.00  0.00     0.003 A 
ATOM      8  C6  PXY d   1      -0.280   3.976   0.582  0.00  0.00     0.003 A 
ENDROOT
TORSDOF 0
ENDMDL
