MODEL 1
REMARK minimizedAffinity 1.13930619
REMARK minimizedRMSD -1
REMARK  0 active torsions:
REMARK  status: ('A' for Active; 'I' for Inactive)
ROOT
ATOM      1  C4' PXY d   1      -0.016   3.670   2.800  0.00  0.00     0.077 C 
ATOM      2  C1' PXY d   1       3.572   0.691  -0.615  0.00  0.00     0.077 C 
ATOM      3  C1  PXY d   1       2.641   1.474   0.289  0.00  0.00    -0.082 A 
ATOM      4  C2  PXY d   1       1.332   1.314   0.176  0.00  0.00     0.003 A 
ATOM      5  C3  PXY d   1       0.474   2.037   0.965  0.00  0.00     0.003 A 
ATOM      6  C4  PXY d   1       0.962   2.894   1.915  0.00  0.00    -0.082 A 
ATOM      7  C5  PXY d   1       2.296   3.055   2.043  0.00  0.00     0.003 A 
ATOM      8  C6  PXY d   1       3.149   2.342   1.206  0.00  0.00     0.003 A 
ENDROOT
TORSDOF 0
ENDMDL
