MODEL 1
REMARK minimizedAffinity -3.52813125
REMARK minimizedRMSD -1
REMARK  0 active torsions:
REMARK  status: ('A' for Active; 'I' for Inactive)
ROOT
ATOM      1  C4' PXY d   1      -4.016   1.876  -5.243  0.00  0.00     0.077 C 
ATOM      2  C1' PXY d   1       1.754   2.230  -5.225  0.00  0.00     0.077 C 
ATOM      3  C1  PXY d   1       0.240   2.149  -5.233  0.00  0.00    -0.082 A 
ATOM      4  C2  PXY d   1      -0.371   1.232  -4.500  0.00  0.00     0.003 A 
ATOM      5  C3  PXY d   1      -1.738   1.125  -4.521  0.00  0.00     0.003 A 
ATOM      6  C4  PXY d   1      -2.490   2.000  -5.258  0.00  0.00    -0.082 A 
ATOM      7  C5  PXY d   1      -1.875   2.945  -6.000  0.00  0.00     0.003 A 
ATOM      8  C6  PXY d   1      -0.485   3.011  -5.997  0.00  0.00     0.003 A 
ENDROOT
TORSDOF 0
ENDMDL
