MODEL 1
REMARK minimizedAffinity -2.89948654
REMARK minimizedRMSD -1
REMARK  1 active torsions:
REMARK  status: ('A' for Active; 'I' for Inactive)
REMARK    1  A    between atoms: C1_2  and  C2_3 
ROOT
ATOM      1  C2  UNL d   1       0.145  -0.745   0.156  0.00  0.00    -0.076 A 
ATOM      2  C3  UNL d   1      -0.565  -1.957   0.199  0.00  0.00     0.004 A 
ATOM      3  C4  UNL d   1       0.043  -3.130   0.642  0.00  0.00    -0.003 A 
ATOM      4  C5  UNL d   1       1.372  -3.110   1.050  0.00  0.00     0.000 A 
ATOM      5  C6  UNL d   1       2.087  -1.912   1.031  0.00  0.00     0.000 A 
ATOM      6  C7  UNL d   1       1.484  -0.718   0.603  0.00  0.00    -0.073 A 
ATOM      7  C8  UNL d   1       2.303   0.544   0.597  0.00  0.00     0.078 C 
ENDROOT
BRANCH   1   8
ATOM      8  C1  UNL d   1      -0.559   0.490  -0.359  0.00  0.00     0.053 C 
ATOM      9  C   UNL d   1      -1.310   1.232   0.735  0.00  0.00     0.018 C 
ENDBRANCH   1   8
TORSDOF 1
ENDMDL
