MODEL 1
REMARK minimizedAffinity 2.98125219
REMARK minimizedRMSD -1
REMARK  1 active torsions:
REMARK  status: ('A' for Active; 'I' for Inactive)
REMARK    1  A    between atoms: C1_2  and  C2_3 
ROOT
ATOM      1  C2  UNL d   1      -1.266   0.663  -0.416  0.00  0.00    -0.076 A 
ATOM      2  C3  UNL d   1      -2.503   0.456  -1.051  0.00  0.00     0.004 A 
ATOM      3  C4  UNL d   1      -2.810   1.099  -2.250  0.00  0.00    -0.003 A 
ATOM      4  C5  UNL d   1      -1.884   1.958  -2.832  0.00  0.00     0.000 A 
ATOM      5  C6  UNL d   1      -0.646   2.161  -2.225  0.00  0.00     0.000 A 
ATOM      6  C7  UNL d   1      -0.314   1.508  -1.025  0.00  0.00    -0.073 A 
ATOM      7  C8  UNL d   1       1.034   1.768  -0.411  0.00  0.00     0.078 C 
ENDROOT
BRANCH   1   8
ATOM      8  C1  UNL d   1      -0.999  -0.041   0.896  0.00  0.00     0.053 C 
ATOM      9  C   UNL d   1      -0.493  -1.461   0.703  0.00  0.00     0.018 C 
ENDBRANCH   1   8
TORSDOF 1
ENDMDL
