MODEL 1
REMARK minimizedAffinity -2.97976375
REMARK minimizedRMSD -1
REMARK  1 active torsions:
REMARK  status: ('A' for Active; 'I' for Inactive)
REMARK    1  A    between atoms: C1_2  and  C2_3 
ROOT
ATOM      1  C2  UNL d   1       0.538  -2.156   0.377  0.00  0.00    -0.076 A 
ATOM      2  C3  UNL d   1      -0.599  -2.340   1.182  0.00  0.00     0.004 A 
ATOM      3  C4  UNL d   1      -1.264  -1.252   1.745  0.00  0.00    -0.003 A 
ATOM      4  C5  UNL d   1      -0.802   0.039   1.512  0.00  0.00     0.000 A 
ATOM      5  C6  UNL d   1       0.314   0.241   0.701  0.00  0.00     0.000 A 
ATOM      6  C7  UNL d   1       0.986  -0.844   0.113  0.00  0.00    -0.073 A 
ATOM      7  C8  UNL d   1       2.188  -0.568  -0.748  0.00  0.00     0.078 C 
ENDROOT
BRANCH   1   8
ATOM      8  C1  UNL d   1       1.234  -3.375  -0.184  0.00  0.00     0.053 C 
ATOM      9  C   UNL d   1       0.544  -3.920  -1.425  0.00  0.00     0.018 C 
ENDBRANCH   1   8
TORSDOF 1
ENDMDL
