MODEL 1
REMARK minimizedAffinity -2.44935465
REMARK minimizedRMSD -1
REMARK  1 active torsions:
REMARK  status: ('A' for Active; 'I' for Inactive)
REMARK    1  A    between atoms: C1_2  and  C2_3 
ROOT
ATOM      1  C2  UNL d   1      -1.323   0.275  -1.258  0.00  0.00    -0.076 A 
ATOM      2  C3  UNL d   1      -1.896  -0.128  -2.477  0.00  0.00     0.004 A 
ATOM      3  C4  UNL d   1      -2.244   0.807  -3.450  0.00  0.00    -0.003 A 
ATOM      4  C5  UNL d   1      -2.024   2.160  -3.221  0.00  0.00     0.000 A 
ATOM      5  C6  UNL d   1      -1.441   2.577  -2.025  0.00  0.00     0.000 A 
ATOM      6  C7  UNL d   1      -1.069   1.646  -1.040  0.00  0.00    -0.073 A 
ATOM      7  C8  UNL d   1      -0.449   2.152   0.234  0.00  0.00     0.078 C 
ENDROOT
BRANCH   1   8
ATOM      8  C1  UNL d   1      -0.992  -0.781  -0.229  0.00  0.00     0.053 C 
ATOM      9  C   UNL d   1       0.460  -1.230  -0.301  0.00  0.00     0.018 C 
ENDBRANCH   1   8
TORSDOF 1
ENDMDL
