MODEL 1
REMARK minimizedAffinity -3.17016292
REMARK minimizedRMSD -1
REMARK  1 active torsions:
REMARK  status: ('A' for Active; 'I' for Inactive)
REMARK    1  A    between atoms: C1_2  and  C2_3 
ROOT
ATOM      1  C2  UNL d   1      -0.411  -1.122   0.758  0.00  0.00    -0.076 A 
ATOM      2  C3  UNL d   1      -0.765   0.110   0.180  0.00  0.00     0.004 A 
ATOM      3  C4  UNL d   1       0.136   0.813  -0.617  0.00  0.00    -0.003 A 
ATOM      4  C5  UNL d   1       1.405   0.296  -0.851  0.00  0.00     0.000 A 
ATOM      5  C6  UNL d   1       1.767  -0.933  -0.300  0.00  0.00     0.000 A 
ATOM      6  C7  UNL d   1       0.865  -1.663   0.493  0.00  0.00    -0.073 A 
ATOM      7  C8  UNL d   1       1.311  -2.980   1.067  0.00  0.00     0.078 C 
ENDROOT
BRANCH   1   8
ATOM      8  C1  UNL d   1      -1.420  -1.827   1.637  0.00  0.00     0.053 C 
ATOM      9  C   UNL d   1      -2.009  -0.910   2.698  0.00  0.00     0.018 C 
ENDBRANCH   1   8
TORSDOF 1
ENDMDL
