MODEL 1
REMARK minimizedAffinity -4.24732971
REMARK minimizedRMSD -1
REMARK  1 active torsions:
REMARK  status: ('A' for Active; 'I' for Inactive)
REMARK    1  A    between atoms: C1_2  and  C2_3 
ROOT
ATOM      1  C2  UNL d   1       0.338  -0.213   0.351  0.00  0.00    -0.076 A 
ATOM      2  C3  UNL d   1       1.653  -0.375  -0.120  0.00  0.00     0.004 A 
ATOM      3  C4  UNL d   1       2.385  -1.524   0.176  0.00  0.00    -0.003 A 
ATOM      4  C5  UNL d   1       1.814  -2.530   0.947  0.00  0.00     0.000 A 
ATOM      5  C6  UNL d   1       0.505  -2.394   1.408  0.00  0.00     0.000 A 
ATOM      6  C7  UNL d   1      -0.253  -1.250   1.105  0.00  0.00    -0.073 A 
ATOM      7  C8  UNL d   1      -1.658  -1.153   1.633  0.00  0.00     0.078 C 
ENDROOT
BRANCH   1   8
ATOM      8  C1  UNL d   1      -0.397   1.066   0.021  0.00  0.00     0.053 C 
ATOM      9  C   UNL d   1      -1.096   1.005  -1.329  0.00  0.00     0.018 C 
ENDBRANCH   1   8
TORSDOF 1
ENDMDL
