MODEL 1
REMARK minimizedAffinity -0.758305252
REMARK minimizedRMSD -1
REMARK  1 active torsions:
REMARK  status: ('A' for Active; 'I' for Inactive)
REMARK    1  A    between atoms: C1_2  and  C2_3 
ROOT
ATOM      1  C2  UNL d   1      -0.760   0.398  -0.924  0.00  0.00    -0.076 A 
ATOM      2  C3  UNL d   1      -0.237  -0.728  -1.584  0.00  0.00     0.004 A 
ATOM      3  C4  UNL d   1       0.563  -1.648  -0.908  0.00  0.00    -0.003 A 
ATOM      4  C5  UNL d   1       0.853  -1.458   0.438  0.00  0.00     0.000 A 
ATOM      5  C6  UNL d   1       0.328  -0.356   1.113  0.00  0.00     0.000 A 
ATOM      6  C7  UNL d   1      -0.494   0.573   0.451  0.00  0.00    -0.073 A 
ATOM      7  C8  UNL d   1      -1.028   1.746   1.226  0.00  0.00     0.078 C 
ENDROOT
BRANCH   1   8
ATOM      8  C1  UNL d   1      -1.599   1.376  -1.715  0.00  0.00     0.053 C 
ATOM      9  C   UNL d   1      -2.173   0.760  -2.981  0.00  0.00     0.018 C 
ENDBRANCH   1   8
TORSDOF 1
ENDMDL
