MODEL 1
REMARK minimizedAffinity -2.65552568
REMARK minimizedRMSD -1
REMARK  1 active torsions:
REMARK  status: ('A' for Active; 'I' for Inactive)
REMARK    1  A    between atoms: C1_2  and  C2_3 
ROOT
ATOM      1  C2  UNL d   1       1.414  -0.643   0.167  0.00  0.00    -0.076 A 
ATOM      2  C3  UNL d   1       0.964   0.639  -0.195  0.00  0.00     0.004 A 
ATOM      3  C4  UNL d   1      -0.398   0.928  -0.265  0.00  0.00    -0.003 A 
ATOM      4  C5  UNL d   1      -1.332  -0.060   0.026  0.00  0.00     0.000 A 
ATOM      5  C6  UNL d   1      -0.903  -1.332   0.404  0.00  0.00     0.000 A 
ATOM      6  C7  UNL d   1       0.466  -1.635   0.495  0.00  0.00    -0.073 A 
ATOM      7  C8  UNL d   1       0.872  -3.026   0.902  0.00  0.00     0.078 C 
ENDROOT
BRANCH   1   8
ATOM      8  C1  UNL d   1       2.903  -0.905   0.199  0.00  0.00     0.053 C 
ATOM      9  C   UNL d   1       3.520  -0.593   1.554  0.00  0.00     0.018 C 
ENDBRANCH   1   8
TORSDOF 1
ENDMDL
