MODEL 1
REMARK minimizedAffinity 11.7984495
REMARK minimizedRMSD -1
REMARK  0 active torsions:
REMARK  status: ('A' for Active; 'I' for Inactive)
ROOT
ATOM      1  O1  BZF d   1       3.305  -0.347   4.059  0.00  0.00    -0.204 OA
ATOM      2  C2  BZF d   1       3.802   0.811   3.494  0.00  0.00     0.174 A 
ATOM      3  C3  BZF d   1       2.944   1.301   2.575  0.00  0.00    -0.012 A 
ATOM      4  C3A BZF d   1       1.800   0.442   2.633  0.00  0.00    -0.107 A 
ATOM      5  C4  BZF d   1       0.606   0.423   1.971  0.00  0.00     0.055 A 
ATOM      6  C5  BZF d   1      -0.264  -0.593   2.208  0.00  0.00    -0.016 A 
ATOM      7  C6  BZF d   1       0.028  -1.607   3.095  0.00  0.00     0.022 A 
ATOM      8  C7  BZF d   1       1.198  -1.629   3.780  0.00  0.00     0.029 A 
ATOM      9  C7A BZF d   1       2.066  -0.586   3.567  0.00  0.00     0.058 A 
ENDROOT
TORSDOF 0
ENDMDL
