MODEL 1
REMARK minimizedAffinity 11.5785017
REMARK minimizedRMSD -1
REMARK  0 active torsions:
REMARK  status: ('A' for Active; 'I' for Inactive)
ROOT
ATOM      1  O1  BZF d   1       0.130  -3.856   3.798  0.00  0.00    -0.204 OA
ATOM      2  C2  BZF d   1       1.418  -3.486   4.131  0.00  0.00     0.174 A 
ATOM      3  C3  BZF d   1       1.698  -2.254   3.660  0.00  0.00    -0.012 A 
ATOM      4  C3A BZF d   1       0.480  -1.790   3.071  0.00  0.00    -0.107 A 
ATOM      5  C4  BZF d   1       0.120  -0.628   2.450  0.00  0.00     0.055 A 
ATOM      6  C5  BZF d   1      -1.128  -0.520   1.922  0.00  0.00    -0.016 A 
ATOM      7  C6  BZF d   1      -2.038  -1.554   1.992  0.00  0.00     0.022 A 
ATOM      8  C7  BZF d   1      -1.728  -2.724   2.603  0.00  0.00     0.029 A 
ATOM      9  C7A BZF d   1      -0.480  -2.824   3.166  0.00  0.00     0.058 A 
ENDROOT
TORSDOF 0
ENDMDL
