MODEL 1
REMARK minimizedAffinity 19.2190723
REMARK minimizedRMSD -1
REMARK  0 active torsions:
REMARK  status: ('A' for Active; 'I' for Inactive)
ROOT
ATOM      1  O1  BZF d   1       1.372  -0.455  -3.900  0.00  0.00    -0.204 OA
ATOM      2  C2  BZF d   1       0.157   0.107  -4.240  0.00  0.00     0.174 A 
ATOM      3  C3  BZF d   1      -0.505  -0.678  -5.114  0.00  0.00    -0.012 A 
ATOM      4  C3A BZF d   1       0.309  -1.845  -5.264  0.00  0.00    -0.107 A 
ATOM      5  C4  BZF d   1       0.178  -2.995  -5.989  0.00  0.00     0.055 A 
ATOM      6  C5  BZF d   1       1.187  -3.905  -5.971  0.00  0.00    -0.016 A 
ATOM      7  C6  BZF d   1       2.341  -3.696  -5.245  0.00  0.00     0.022 A 
ATOM      8  C7  BZF d   1       2.514  -2.574  -4.506  0.00  0.00     0.029 A 
ATOM      9  C7A BZF d   1       1.483  -1.667  -4.496  0.00  0.00     0.058 A 
ENDROOT
TORSDOF 0
ENDMDL
