MODEL 1
REMARK minimizedAffinity 7.24336195
REMARK minimizedRMSD -1
REMARK  0 active torsions:
REMARK  status: ('A' for Active; 'I' for Inactive)
ROOT
ATOM      1  O1  BZF d   1      -0.748   2.004   3.210  0.00  0.00    -0.204 OA
ATOM      2  C2  BZF d   1      -0.280   2.587   4.372  0.00  0.00     0.174 A 
ATOM      3  C3  BZF d   1       0.416   1.696   5.107  0.00  0.00    -0.012 A 
ATOM      4  C3A BZF d   1       0.459   0.506   4.315  0.00  0.00    -0.107 A 
ATOM      5  C4  BZF d   1       1.023  -0.725   4.498  0.00  0.00     0.055 A 
ATOM      6  C5  BZF d   1       0.819  -1.691   3.564  0.00  0.00    -0.016 A 
ATOM      7  C6  BZF d   1       0.055  -1.463   2.439  0.00  0.00     0.022 A 
ATOM      8  C7  BZF d   1      -0.520  -0.257   2.210  0.00  0.00     0.029 A 
ATOM      9  C7A BZF d   1      -0.289   0.731   3.136  0.00  0.00     0.058 A 
ENDROOT
TORSDOF 0
ENDMDL
