MODEL 1
REMARK minimizedAffinity 10.2150316
REMARK minimizedRMSD -1
REMARK  0 active torsions:
REMARK  status: ('A' for Active; 'I' for Inactive)
ROOT
ATOM      1  O1  BZF d   1      -0.519   1.983   4.153  0.00  0.00    -0.204 OA
ATOM      2  C2  BZF d   1       0.119   2.199   5.359  0.00  0.00     0.174 A 
ATOM      3  C3  BZF d   1       1.068   1.265   5.573  0.00  0.00    -0.012 A 
ATOM      4  C3A BZF d   1       1.082   0.465   4.386  0.00  0.00    -0.107 A 
ATOM      5  C4  BZF d   1       1.822  -0.612   3.989  0.00  0.00     0.055 A 
ATOM      6  C5  BZF d   1       1.539  -1.206   2.800  0.00  0.00    -0.016 A 
ATOM      7  C6  BZF d   1       0.520  -0.753   1.987  0.00  0.00     0.022 A 
ATOM      8  C7  BZF d   1      -0.238   0.315   2.336  0.00  0.00     0.029 A 
ATOM      9  C7A BZF d   1       0.068   0.938   3.522  0.00  0.00     0.058 A 
ENDROOT
TORSDOF 0
ENDMDL
