MODEL 1
REMARK minimizedAffinity 10.456378
REMARK minimizedRMSD -1
REMARK  0 active torsions:
REMARK  status: ('A' for Active; 'I' for Inactive)
ROOT
ATOM      1  O1  BZF d   1      -0.729   1.853   3.381  0.00  0.00    -0.204 OA
ATOM      2  C2  BZF d   1      -0.401   2.378   4.616  0.00  0.00     0.174 A 
ATOM      3  C3  BZF d   1       0.336   1.501   5.328  0.00  0.00    -0.012 A 
ATOM      4  C3A BZF d   1       0.555   0.393   4.449  0.00  0.00    -0.107 A 
ATOM      5  C4  BZF d   1       1.232  -0.787   4.576  0.00  0.00     0.055 A 
ATOM      6  C5  BZF d   1       1.191  -1.684   3.557  0.00  0.00    -0.016 A 
ATOM      7  C6  BZF d   1       0.482  -1.437   2.400  0.00  0.00     0.022 A 
ATOM      8  C7  BZF d   1      -0.201  -0.279   2.226  0.00  0.00     0.029 A 
ATOM      9  C7A BZF d   1      -0.135   0.644   3.241  0.00  0.00     0.058 A 
ENDROOT
TORSDOF 0
ENDMDL
