MODEL 1
REMARK minimizedAffinity 9.24200726
REMARK minimizedRMSD -1
REMARK  0 active torsions:
REMARK  status: ('A' for Active; 'I' for Inactive)
ROOT
ATOM      1  O1  BZF d   1      -3.208  -2.233  -0.004  0.00  0.00    -0.204 OA
ATOM      2  C2  BZF d   1      -2.804  -2.198   1.316  0.00  0.00     0.174 A 
ATOM      3  C3  BZF d   1      -3.004  -0.973   1.846  0.00  0.00    -0.012 A 
ATOM      4  C3A BZF d   1      -3.654  -0.221   0.817  0.00  0.00    -0.107 A 
ATOM      5  C4  BZF d   1      -4.124   1.060   0.745  0.00  0.00     0.055 A 
ATOM      6  C5  BZF d   1      -4.641   1.508  -0.429  0.00  0.00    -0.016 A 
ATOM      7  C6  BZF d   1      -4.699   0.707  -1.550  0.00  0.00     0.022 A 
ATOM      8  C7  BZF d   1      -4.250  -0.571  -1.526  0.00  0.00     0.029 A 
ATOM      9  C7A BZF d   1      -3.757  -1.038  -0.332  0.00  0.00     0.058 A 
ENDROOT
TORSDOF 0
ENDMDL
