MODEL 1
REMARK minimizedAffinity 15.0413361
REMARK minimizedRMSD -1
REMARK  0 active torsions:
REMARK  status: ('A' for Active; 'I' for Inactive)
ROOT
ATOM      1  O1  BZF d   1      -2.742   0.384   2.470  0.00  0.00    -0.204 OA
ATOM      2  C2  BZF d   1      -3.458  -0.762   2.182  0.00  0.00     0.174 A 
ATOM      3  C3  BZF d   1      -2.634  -1.822   2.056  0.00  0.00    -0.012 A 
ATOM      4  C3A BZF d   1      -1.330  -1.325   2.371  0.00  0.00    -0.107 A 
ATOM      5  C4  BZF d   1      -0.095  -1.904   2.436  0.00  0.00     0.055 A 
ATOM      6  C5  BZF d   1       0.987  -1.124   2.701  0.00  0.00    -0.016 A 
ATOM      7  C6  BZF d   1       0.870   0.236   2.900  0.00  0.00     0.022 A 
ATOM      8  C7  BZF d   1      -0.335   0.854   2.850  0.00  0.00     0.029 A 
ATOM      9  C7A BZF d   1      -1.433   0.064   2.615  0.00  0.00     0.058 A 
ENDROOT
TORSDOF 0
ENDMDL
