MODEL 1
REMARK minimizedAffinity 12.426939
REMARK minimizedRMSD -1
REMARK  0 active torsions:
REMARK  status: ('A' for Active; 'I' for Inactive)
ROOT
ATOM      1  O1  BZF d   1       0.527   0.137  -3.982  0.00  0.00    -0.204 OA
ATOM      2  C2  BZF d   1       0.571  -0.255  -5.306  0.00  0.00     0.174 A 
ATOM      3  C3  BZF d   1       0.189  -1.542  -5.436  0.00  0.00    -0.012 A 
ATOM      4  C3A BZF d   1      -0.201  -1.954  -4.123  0.00  0.00    -0.107 A 
ATOM      5  C4  BZF d   1      -0.688  -3.123  -3.611  0.00  0.00     0.055 A 
ATOM      6  C5  BZF d   1      -0.898  -3.221  -2.272  0.00  0.00    -0.016 A 
ATOM      7  C6  BZF d   1      -0.627  -2.173  -1.416  0.00  0.00     0.022 A 
ATOM      8  C7  BZF d   1      -0.148  -0.993  -1.878  0.00  0.00     0.029 A 
ATOM      9  C7A BZF d   1       0.034  -0.879  -3.234  0.00  0.00     0.058 A 
ENDROOT
TORSDOF 0
ENDMDL
