MODEL 1
REMARK minimizedAffinity 18.1327991
REMARK minimizedRMSD -1
REMARK  0 active torsions:
REMARK  status: ('A' for Active; 'I' for Inactive)
ROOT
ATOM      1  O1  BZF d   1      -2.855  -0.439   2.213  0.00  0.00    -0.204 OA
ATOM      2  C2  BZF d   1      -3.453  -1.672   2.391  0.00  0.00     0.174 A 
ATOM      3  C3  BZF d   1      -2.544  -2.597   2.760  0.00  0.00    -0.012 A 
ATOM      4  C3A BZF d   1      -1.315  -1.879   2.905  0.00  0.00    -0.107 A 
ATOM      5  C4  BZF d   1      -0.050  -2.245   3.268  0.00  0.00     0.055 A 
ATOM      6  C5  BZF d   1       0.941  -1.316   3.240  0.00  0.00    -0.016 A 
ATOM      7  C6  BZF d   1       0.704  -0.014   2.850  0.00  0.00     0.022 A 
ATOM      8  C7  BZF d   1      -0.534   0.398   2.485  0.00  0.00     0.029 A 
ATOM      9  C7A BZF d   1      -1.545  -0.531   2.544  0.00  0.00     0.058 A 
ENDROOT
TORSDOF 0
ENDMDL
