MODEL 1
REMARK minimizedAffinity 9.55281162
REMARK minimizedRMSD -1
REMARK  0 active torsions:
REMARK  status: ('A' for Active; 'I' for Inactive)
ROOT
ATOM      1  O1  BZF d   1      -1.861   1.343   2.068  0.00  0.00    -0.204 OA
ATOM      2  C2  BZF d   1      -2.886   0.548   1.592  0.00  0.00     0.174 A 
ATOM      3  C3  BZF d   1      -2.494  -0.739   1.507  0.00  0.00    -0.012 A 
ATOM      4  C3A BZF d   1      -1.169  -0.765   2.046  0.00  0.00    -0.107 A 
ATOM      5  C4  BZF d   1      -0.256  -1.761   2.246  0.00  0.00     0.055 A 
ATOM      6  C5  BZF d   1       0.975  -1.442   2.725  0.00  0.00    -0.016 A 
ATOM      7  C6  BZF d   1       1.329  -0.139   3.008  0.00  0.00     0.022 A 
ATOM      8  C7  BZF d   1       0.456   0.882   2.830  0.00  0.00     0.029 A 
ATOM      9  C7A BZF d   1      -0.800   0.559   2.378  0.00  0.00     0.058 A 
ENDROOT
TORSDOF 0
ENDMDL
