MODEL 1
REMARK minimizedAffinity -0.729869485
REMARK minimizedRMSD -1
REMARK  2 active torsions:
REMARK  status: ('A' for Active; 'I' for Inactive)
REMARK    1  A    between atoms: C2'_3  and  C1'_4 
REMARK    2  A    between atoms: C1'_4  and  C1_5 
ROOT
ATOM      1  C1  I4B d   1       1.523  -2.145   0.057  0.00  0.00    -0.075 A 
ATOM      2  C2  I4B d   1       2.205  -2.029  -1.129  0.00  0.00     0.003 A 
ATOM      3  C3  I4B d   1       1.883  -0.992  -2.037  0.00  0.00     0.002 A 
ATOM      4  C4  I4B d   1       0.847  -0.129  -1.745  0.00  0.00    -0.004 A 
ATOM      5  C5  I4B d   1       0.172  -0.234  -0.532  0.00  0.00     0.002 A 
ATOM      6  C6  I4B d   1       0.520  -1.241   0.380  0.00  0.00     0.003 A 
ENDROOT
BRANCH   1   7
ATOM      7  C1' I4B d   1       1.865  -3.273   0.978  0.00  0.00     0.060 C 
BRANCH   7   8
ATOM      8  C2' I4B d   1       0.934  -4.427   0.670  0.00  0.00    -0.013 C 
ATOM      9  C4' I4B d   1       1.417  -5.703   1.308  0.00  0.00     0.013 C 
ATOM     10  C3' I4B d   1      -0.435  -4.061   1.161  0.00  0.00     0.013 C 
ENDBRANCH   7   8
ENDBRANCH   1   7
TORSDOF 2
ENDMDL
