MODEL 1
REMARK minimizedAffinity 4.96570921
REMARK minimizedRMSD -1
REMARK  2 active torsions:
REMARK  status: ('A' for Active; 'I' for Inactive)
REMARK    1  A    between atoms: C2'_3  and  C1'_4 
REMARK    2  A    between atoms: C1'_4  and  C1_5 
ROOT
ATOM      1  C1  I4B d   1      -0.312  -2.985   0.309  0.00  0.00    -0.075 A 
ATOM      2  C2  I4B d   1       0.790  -2.260   0.689  0.00  0.00     0.003 A 
ATOM      3  C3  I4B d   1       1.171  -1.107  -0.039  0.00  0.00     0.002 A 
ATOM      4  C4  I4B d   1       0.457  -0.747  -1.163  0.00  0.00    -0.004 A 
ATOM      5  C5  I4B d   1      -0.673  -1.470  -1.534  0.00  0.00     0.002 A 
ATOM      6  C6  I4B d   1      -1.068  -2.589  -0.786  0.00  0.00     0.003 A 
ENDROOT
BRANCH   1   7
ATOM      7  C1' I4B d   1      -0.666  -4.216   1.082  0.00  0.00     0.060 C 
BRANCH   7   8
ATOM      8  C2' I4B d   1       0.412  -5.250   0.833  0.00  0.00    -0.013 C 
ATOM      9  C4' I4B d   1       1.683  -4.606   0.344  0.00  0.00     0.013 C 
ATOM     10  C3' I4B d   1       0.642  -5.997   2.113  0.00  0.00     0.013 C 
ENDBRANCH   7   8
ENDBRANCH   1   7
TORSDOF 2
ENDMDL
