MODEL 1
REMARK minimizedAffinity 8.59830475
REMARK minimizedRMSD -1
REMARK  2 active torsions:
REMARK  status: ('A' for Active; 'I' for Inactive)
REMARK    1  A    between atoms: C2'_3  and  C1'_4 
REMARK    2  A    between atoms: C1'_4  and  C1_5 
ROOT
ATOM      1  C1  I4B d   1       0.668  -1.119  -0.257  0.00  0.00    -0.075 A 
ATOM      2  C2  I4B d   1       0.626  -0.475  -1.469  0.00  0.00     0.003 A 
ATOM      3  C3  I4B d   1      -0.514  -0.594  -2.301  0.00  0.00     0.002 A 
ATOM      4  C4  I4B d   1      -1.561  -1.403  -1.907  0.00  0.00    -0.004 A 
ATOM      5  C5  I4B d   1      -1.526  -2.036  -0.668  0.00  0.00     0.002 A 
ATOM      6  C6  I4B d   1      -0.410  -1.884   0.168  0.00  0.00     0.003 A 
ENDROOT
BRANCH   1   7
ATOM      7  C1' I4B d   1       1.901  -0.998   0.581  0.00  0.00     0.060 C 
BRANCH   7   8
ATOM      8  C2' I4B d   1       2.910  -2.010   0.077  0.00  0.00    -0.013 C 
ATOM      9  C4' I4B d   1       3.788  -2.507   1.194  0.00  0.00     0.013 C 
ATOM     10  C3' I4B d   1       2.154  -3.138  -0.561  0.00  0.00     0.013 C 
ENDBRANCH   7   8
ENDBRANCH   1   7
TORSDOF 2
ENDMDL
