MODEL 1
REMARK minimizedAffinity 4.21169519
REMARK minimizedRMSD -1
REMARK  2 active torsions:
REMARK  status: ('A' for Active; 'I' for Inactive)
REMARK    1  A    between atoms: C2'_3  and  C1'_4 
REMARK    2  A    between atoms: C1'_4  and  C1_5 
ROOT
ATOM      1  C1  I4B d   1       0.069  -2.247  -0.026  0.00  0.00    -0.075 A 
ATOM      2  C2  I4B d   1       0.867  -1.306   0.577  0.00  0.00     0.003 A 
ATOM      3  C3  I4B d   1       1.162  -0.091  -0.087  0.00  0.00     0.002 A 
ATOM      4  C4  I4B d   1       0.685   0.119  -1.364  0.00  0.00    -0.004 A 
ATOM      5  C5  I4B d   1      -0.142  -0.825  -1.965  0.00  0.00     0.002 A 
ATOM      6  C6  I4B d   1      -0.462  -2.011  -1.287  0.00  0.00     0.003 A 
ENDROOT
BRANCH   1   7
ATOM      7  C1' I4B d   1      -0.196  -3.533   0.690  0.00  0.00     0.060 C 
BRANCH   7   8
ATOM      8  C2' I4B d   1       1.140  -4.167   1.021  0.00  0.00    -0.013 C 
ATOM      9  C4' I4B d   1       1.012  -5.660   1.174  0.00  0.00     0.013 C 
ATOM     10  C3' I4B d   1       2.103  -3.815  -0.073  0.00  0.00     0.013 C 
ENDBRANCH   7   8
ENDBRANCH   1   7
TORSDOF 2
ENDMDL
