MODEL 1
REMARK minimizedAffinity -5.64092588
REMARK minimizedRMSD -1
REMARK  2 active torsions:
REMARK  status: ('A' for Active; 'I' for Inactive)
REMARK    1  A    between atoms: C2'_3  and  C1'_4 
REMARK    2  A    between atoms: C1'_4  and  C1_5 
ROOT
ATOM      1  C1  I4B d   1       1.416  -2.269   0.047  0.00  0.00    -0.075 A 
ATOM      2  C2  I4B d   1       0.132  -2.271  -0.438  0.00  0.00     0.003 A 
ATOM      3  C3  I4B d   1      -0.435  -1.083  -0.961  0.00  0.00     0.002 A 
ATOM      4  C4  I4B d   1       0.294   0.088  -0.932  0.00  0.00    -0.004 A 
ATOM      5  C5  I4B d   1       1.604   0.083  -0.461  0.00  0.00     0.002 A 
ATOM      6  C6  I4B d   1       2.173  -1.105   0.020  0.00  0.00     0.003 A 
ENDROOT
BRANCH   1   7
ATOM      7  C1' I4B d   1       1.972  -3.533   0.621  0.00  0.00     0.060 C 
BRANCH   7   8
ATOM      8  C2' I4B d   1       1.148  -4.689   0.089  0.00  0.00    -0.013 C 
ATOM      9  C4' I4B d   1       1.613  -6.000   0.666  0.00  0.00     0.013 C 
ATOM     10  C3' I4B d   1      -0.289  -4.427   0.427  0.00  0.00     0.013 C 
ENDBRANCH   7   8
ENDBRANCH   1   7
TORSDOF 2
ENDMDL
