MODEL 1
REMARK minimizedAffinity -0.363628894
REMARK minimizedRMSD -1
REMARK  2 active torsions:
REMARK  status: ('A' for Active; 'I' for Inactive)
REMARK    1  A    between atoms: C2'_3  and  C1'_4 
REMARK    2  A    between atoms: C1'_4  and  C1_5 
ROOT
ATOM      1  C1  I4B d   1      -0.405  -2.401   0.151  0.00  0.00    -0.075 A 
ATOM      2  C2  I4B d   1      -0.949  -1.570  -0.797  0.00  0.00     0.003 A 
ATOM      3  C3  I4B d   1      -0.116  -0.922  -1.740  0.00  0.00     0.002 A 
ATOM      4  C4  I4B d   1       1.252  -1.092  -1.668  0.00  0.00    -0.004 A 
ATOM      5  C5  I4B d   1       1.800  -1.952  -0.721  0.00  0.00     0.002 A 
ATOM      6  C6  I4B d   1       0.966  -2.620   0.187  0.00  0.00     0.003 A 
ENDROOT
BRANCH   1   7
ATOM      7  C1' I4B d   1      -1.311  -3.044   1.152  0.00  0.00     0.060 C 
BRANCH   7   8
ATOM      8  C2' I4B d   1      -1.339  -4.532   0.869  0.00  0.00    -0.013 C 
ATOM      9  C4' I4B d   1      -2.213  -4.845  -0.316  0.00  0.00     0.013 C 
ATOM     10  C3' I4B d   1       0.072  -4.985   0.637  0.00  0.00     0.013 C 
ENDBRANCH   7   8
ENDBRANCH   1   7
TORSDOF 2
ENDMDL
