MODEL 1
REMARK minimizedAffinity -1.39226079
REMARK minimizedRMSD -1
REMARK  2 active torsions:
REMARK  status: ('A' for Active; 'I' for Inactive)
REMARK    1  A    between atoms: C2'_3  and  C1'_4 
REMARK    2  A    between atoms: C1'_4  and  C1_5 
ROOT
ATOM      1  C1  I4B d   1       0.486  -1.509   0.242  0.00  0.00    -0.075 A 
ATOM      2  C2  I4B d   1       1.106  -0.490  -0.436  0.00  0.00     0.003 A 
ATOM      3  C3  I4B d   1       0.419   0.205  -1.462  0.00  0.00     0.002 A 
ATOM      4  C4  I4B d   1      -0.858  -0.185  -1.809  0.00  0.00    -0.004 A 
ATOM      5  C5  I4B d   1      -1.493  -1.203  -1.105  0.00  0.00     0.002 A 
ATOM      6  C6  I4B d   1      -0.822  -1.862  -0.065  0.00  0.00     0.003 A 
ENDROOT
BRANCH   1   7
ATOM      7  C1' I4B d   1       1.251  -2.243   1.297  0.00  0.00     0.060 C 
BRANCH   7   8
ATOM      8  C2' I4B d   1       1.972  -3.399   0.633  0.00  0.00    -0.013 C 
ATOM      9  C4' I4B d   1       1.174  -4.672   0.740  0.00  0.00     0.013 C 
ATOM     10  C3' I4B d   1       2.214  -3.031  -0.800  0.00  0.00     0.013 C 
ENDBRANCH   7   8
ENDBRANCH   1   7
TORSDOF 2
ENDMDL
