MODEL 1
REMARK minimizedAffinity 0.978383243
REMARK minimizedRMSD -1
REMARK  2 active torsions:
REMARK  status: ('A' for Active; 'I' for Inactive)
REMARK    1  A    between atoms: C2'_3  and  C1'_4 
REMARK    2  A    between atoms: C1'_4  and  C1_5 
ROOT
ATOM      1  C1  I4B d   1       0.316  -2.419  -0.041  0.00  0.00    -0.075 A 
ATOM      2  C2  I4B d   1       0.847  -1.325  -0.677  0.00  0.00     0.003 A 
ATOM      3  C3  I4B d   1       2.250  -1.178  -0.792  0.00  0.00     0.002 A 
ATOM      4  C4  I4B d   1       3.081  -2.116  -0.216  0.00  0.00    -0.004 A 
ATOM      5  C5  I4B d   1       2.542  -3.237   0.410  0.00  0.00     0.002 A 
ATOM      6  C6  I4B d   1       1.151  -3.396   0.487  0.00  0.00     0.003 A 
ENDROOT
BRANCH   1   7
ATOM      7  C1' I4B d   1      -1.170  -2.527   0.092  0.00  0.00     0.060 C 
BRANCH   7   8
ATOM      8  C2' I4B d   1      -1.689  -3.311  -1.096  0.00  0.00    -0.013 C 
ATOM      9  C4' I4B d   1      -2.484  -4.510  -0.653  0.00  0.00     0.013 C 
ATOM     10  C3' I4B d   1      -2.523  -2.387  -1.932  0.00  0.00     0.013 C 
ENDBRANCH   7   8
ENDBRANCH   1   7
TORSDOF 2
ENDMDL
