MODEL 1
REMARK minimizedAffinity -3.97170424
REMARK minimizedRMSD -1
REMARK  2 active torsions:
REMARK  status: ('A' for Active; 'I' for Inactive)
REMARK    1  A    between atoms: C2'_3  and  C1'_4 
REMARK    2  A    between atoms: C1'_4  and  C1_5 
ROOT
ATOM      1  C1  I4B d   1       1.403  -2.093   0.131  0.00  0.00    -0.075 A 
ATOM      2  C2  I4B d   1       2.077  -2.011  -1.062  0.00  0.00     0.003 A 
ATOM      3  C3  I4B d   1       1.783  -0.970  -1.976  0.00  0.00     0.002 A 
ATOM      4  C4  I4B d   1       0.781  -0.068  -1.680  0.00  0.00    -0.004 A 
ATOM      5  C5  I4B d   1       0.115  -0.140  -0.460  0.00  0.00     0.002 A 
ATOM      6  C6  I4B d   1       0.436  -1.151   0.457  0.00  0.00     0.003 A 
ENDROOT
BRANCH   1   7
ATOM      7  C1' I4B d   1       1.715  -3.225   1.058  0.00  0.00     0.060 C 
BRANCH   7   8
ATOM      8  C2' I4B d   1       0.906  -4.428   0.615  0.00  0.00    -0.013 C 
ATOM      9  C4' I4B d   1       1.340  -5.674   1.341  0.00  0.00     0.013 C 
ATOM     10  C3' I4B d   1      -0.542  -4.130   0.869  0.00  0.00     0.013 C 
ENDBRANCH   7   8
ENDBRANCH   1   7
TORSDOF 2
ENDMDL
