MODEL 1
REMARK minimizedAffinity -0.830687761
REMARK minimizedRMSD -1
REMARK  2 active torsions:
REMARK  status: ('A' for Active; 'I' for Inactive)
REMARK    1  A    between atoms: C2'_3  and  C1'_4 
REMARK    2  A    between atoms: C1'_4  and  C1_5 
ROOT
ATOM      1  C1  I4B d   1       0.060  -1.642   0.089  0.00  0.00    -0.075 A 
ATOM      2  C2  I4B d   1       1.046  -2.587   0.216  0.00  0.00     0.003 A 
ATOM      3  C3  I4B d   1       2.352  -2.324  -0.263  0.00  0.00     0.002 A 
ATOM      4  C4  I4B d   1       2.613  -1.129  -0.902  0.00  0.00    -0.004 A 
ATOM      5  C5  I4B d   1       1.618  -0.162  -1.010  0.00  0.00     0.002 A 
ATOM      6  C6  I4B d   1       0.336  -0.415  -0.500  0.00  0.00     0.003 A 
ENDROOT
BRANCH   1   7
ATOM      7  C1' I4B d   1      -1.317  -1.966   0.576  0.00  0.00     0.060 C 
BRANCH   7   8
ATOM      8  C2' I4B d   1      -1.867  -3.083  -0.289  0.00  0.00    -0.013 C 
ATOM      9  C4' I4B d   1      -1.526  -2.867  -1.740  0.00  0.00     0.013 C 
ATOM     10  C3' I4B d   1      -1.302  -4.378   0.213  0.00  0.00     0.013 C 
ENDBRANCH   7   8
ENDBRANCH   1   7
TORSDOF 2
ENDMDL
