MODEL 1
REMARK minimizedAffinity -4.40371227
REMARK minimizedRMSD -1
REMARK  0 active torsions:
REMARK  status: ('A' for Active; 'I' for Inactive)
ROOT
ATOM      1  C4' PXY d   1       6.000   1.102   2.571  0.00  0.00     0.077 C 
ATOM      2  C1' PXY d   1       3.410   1.186  -2.596  0.00  0.00     0.077 C 
ATOM      3  C1  PXY d   1       4.078   1.165  -1.236  0.00  0.00    -0.082 A 
ATOM      4  C2  PXY d   1       5.344   1.529  -1.123  0.00  0.00     0.003 A 
ATOM      5  C3  PXY d   1       5.973   1.486   0.095  0.00  0.00     0.003 A 
ATOM      6  C4  PXY d   1       5.282   1.116   1.218  0.00  0.00    -0.082 A 
ATOM      7  C5  PXY d   1       3.987   0.753   1.113  0.00  0.00     0.003 A 
ATOM      8  C6  PXY d   1       3.379   0.764  -0.139  0.00  0.00     0.003 A 
ENDROOT
TORSDOF 0
ENDMDL
