MODEL 1
REMARK minimizedAffinity 10.73592
REMARK minimizedRMSD -1
REMARK  0 active torsions:
REMARK  status: ('A' for Active; 'I' for Inactive)
ROOT
ATOM      1  C4' PXY d   1      -0.554  -2.329  -1.062  0.00  0.00     0.077 C 
ATOM      2  C1' PXY d   1      -5.701  -3.903  -3.172  0.00  0.00     0.077 C 
ATOM      3  C1  PXY d   1      -4.345  -3.497  -2.628  0.00  0.00    -0.082 A 
ATOM      4  C2  PXY d   1      -4.231  -3.134  -1.361  0.00  0.00     0.003 A 
ATOM      5  C3  PXY d   1      -3.019  -2.734  -0.861  0.00  0.00     0.003 A 
ATOM      6  C4  PXY d   1      -1.901  -2.755  -1.652  0.00  0.00    -0.082 A 
ATOM      7  C5  PXY d   1      -2.008  -3.134  -2.943  0.00  0.00     0.003 A 
ATOM      8  C6  PXY d   1      -3.255  -3.498  -3.443  0.00  0.00     0.003 A 
ENDROOT
TORSDOF 0
ENDMDL
