MODEL 1
REMARK minimizedAffinity 0.957859755
REMARK minimizedRMSD -1
REMARK  0 active torsions:
REMARK  status: ('A' for Active; 'I' for Inactive)
ROOT
ATOM      1  C4' PXY d   1       3.753   1.876  -2.677  0.00  0.00     0.077 C 
ATOM      2  C1' PXY d   1       3.322  -0.433   2.604  0.00  0.00     0.077 C 
ATOM      3  C1  PXY d   1       3.422   0.175   1.219  0.00  0.00    -0.082 A 
ATOM      4  C2  PXY d   1       4.430  -0.159   0.430  0.00  0.00     0.003 A 
ATOM      5  C3  PXY d   1       4.553   0.405  -0.814  0.00  0.00     0.003 A 
ATOM      6  C4  PXY d   1       3.606   1.280  -1.275  0.00  0.00    -0.082 A 
ATOM      7  C5  PXY d   1       2.569   1.618  -0.479  0.00  0.00     0.003 A 
ATOM      8  C6  PXY d   1       2.484   1.065   0.796  0.00  0.00     0.003 A 
ENDROOT
TORSDOF 0
ENDMDL
