MODEL 1
REMARK minimizedAffinity -3.69402146
REMARK minimizedRMSD -1
REMARK  0 active torsions:
REMARK  status: ('A' for Active; 'I' for Inactive)
ROOT
ATOM      1  C4' PXY d   1       0.653   0.771   3.930  0.00  0.00     0.077 C 
ATOM      2  C1' PXY d   1       5.417   0.634   0.659  0.00  0.00     0.077 C 
ATOM      3  C1  PXY d   1       4.166   0.682   1.513  0.00  0.00    -0.082 A 
ATOM      4  C2  PXY d   1       4.024  -0.171   2.515  0.00  0.00     0.003 A 
ATOM      5  C3  PXY d   1       2.885  -0.162   3.278  0.00  0.00     0.003 A 
ATOM      6  C4  PXY d   1       1.904   0.765   3.046  0.00  0.00    -0.082 A 
ATOM      7  C5  PXY d   1       2.046   1.645   2.033  0.00  0.00     0.003 A 
ATOM      8  C6  PXY d   1       3.191   1.593   1.244  0.00  0.00     0.003 A 
ENDROOT
TORSDOF 0
ENDMDL
