MODEL 1
REMARK minimizedAffinity -2.52573252
REMARK minimizedRMSD -1
REMARK  0 active torsions:
REMARK  status: ('A' for Active; 'I' for Inactive)
ROOT
ATOM      1  C4' PXY d   1       3.693   2.204  -3.192  0.00  0.00     0.077 C 
ATOM      2  C1' PXY d   1       4.556   0.055   2.105  0.00  0.00     0.077 C 
ATOM      3  C1  PXY d   1       4.335   0.630   0.720  0.00  0.00    -0.082 A 
ATOM      4  C2  PXY d   1       3.379   0.135  -0.049  0.00  0.00     0.003 A 
ATOM      5  C3  PXY d   1       3.186   0.621  -1.317  0.00  0.00     0.003 A 
ATOM      6  C4  PXY d   1       3.946   1.661  -1.782  0.00  0.00    -0.082 A 
ATOM      7  C5  PXY d   1       4.916   2.179  -1.000  0.00  0.00     0.003 A 
ATOM      8  C6  PXY d   1       5.123   1.643   0.268  0.00  0.00     0.003 A 
ENDROOT
TORSDOF 0
ENDMDL
