MODEL 1
REMARK minimizedAffinity -2.0626781
REMARK minimizedRMSD -1
REMARK  0 active torsions:
REMARK  status: ('A' for Active; 'I' for Inactive)
ROOT
ATOM      1  C4' PXY d   1       4.479  -0.057   1.423  0.00  0.00     0.077 C 
ATOM      2  C1' PXY d   1       2.803   1.551  -3.870  0.00  0.00     0.077 C 
ATOM      3  C1  PXY d   1       3.230   1.131  -2.477  0.00  0.00    -0.082 A 
ATOM      4  C2  PXY d   1       4.503   1.224  -2.128  0.00  0.00     0.003 A 
ATOM      5  C3  PXY d   1       4.912   0.819  -0.884  0.00  0.00     0.003 A 
ATOM      6  C4  PXY d   1       4.001   0.364   0.031  0.00  0.00    -0.082 A 
ATOM      7  C5  PXY d   1       2.699   0.276  -0.314  0.00  0.00     0.003 A 
ATOM      8  C6  PXY d   1       2.310   0.653  -1.596  0.00  0.00     0.003 A 
ENDROOT
TORSDOF 0
ENDMDL
