MODEL 1
REMARK minimizedAffinity 8.70076656
REMARK minimizedRMSD -1
REMARK  0 active torsions:
REMARK  status: ('A' for Active; 'I' for Inactive)
ROOT
ATOM      1  C4' PXY d   1      -1.490  -3.354  -0.219  0.00  0.00     0.077 C 
ATOM      2  C1' PXY d   1      -1.555  -3.450  -5.999  0.00  0.00     0.077 C 
ATOM      3  C1  PXY d   1      -1.543  -3.413  -4.483  0.00  0.00    -0.082 A 
ATOM      4  C2  PXY d   1      -0.713  -4.199  -3.816  0.00  0.00     0.003 A 
ATOM      5  C3  PXY d   1      -0.712  -4.201  -2.445  0.00  0.00     0.003 A 
ATOM      6  C4  PXY d   1      -1.530  -3.351  -1.750  0.00  0.00    -0.082 A 
ATOM      7  C5  PXY d   1      -2.371  -2.538  -2.423  0.00  0.00     0.003 A 
ATOM      8  C6  PXY d   1      -2.387  -2.581  -3.814  0.00  0.00     0.003 A 
ENDROOT
TORSDOF 0
ENDMDL
