MODEL 1
REMARK minimizedAffinity 1.37178171
REMARK minimizedRMSD -1
REMARK  0 active torsions:
REMARK  status: ('A' for Active; 'I' for Inactive)
ROOT
ATOM      1  C4' PXY d   1       4.756  -0.568   0.913  0.00  0.00     0.077 C 
ATOM      2  C1' PXY d   1       1.405   2.666  -2.513  0.00  0.00     0.077 C 
ATOM      3  C1  PXY d   1       2.277   1.821  -1.604  0.00  0.00    -0.082 A 
ATOM      4  C2  PXY d   1       3.515   1.530  -1.970  0.00  0.00     0.003 A 
ATOM      5  C3  PXY d   1       4.306   0.741  -1.175  0.00  0.00     0.003 A 
ATOM      6  C4  PXY d   1       3.843   0.289   0.032  0.00  0.00    -0.082 A 
ATOM      7  C5  PXY d   1       2.585   0.591   0.417  0.00  0.00     0.003 A 
ATOM      8  C6  PXY d   1       1.784   1.359  -0.423  0.00  0.00     0.003 A 
ENDROOT
TORSDOF 0
ENDMDL
