MODEL 1
REMARK minimizedAffinity 5.61938906
REMARK minimizedRMSD -1
REMARK  0 active torsions:
REMARK  status: ('A' for Active; 'I' for Inactive)
ROOT
ATOM      1  C4' PXY d   1       5.999  -1.076   0.933  0.00  0.00     0.077 C 
ATOM      2  C1' PXY d   1       1.068   1.867   0.271  0.00  0.00     0.077 C 
ATOM      3  C1  PXY d   1       2.357   1.089   0.455  0.00  0.00    -0.082 A 
ATOM      4  C2  PXY d   1       3.474   1.536  -0.094  0.00  0.00     0.003 A 
ATOM      5  C3  PXY d   1       4.642   0.829   0.036  0.00  0.00     0.003 A 
ATOM      6  C4  PXY d   1       4.677  -0.319   0.781  0.00  0.00    -0.082 A 
ATOM      7  C5  PXY d   1       3.543  -0.776   1.354  0.00  0.00     0.003 A 
ATOM      8  C6  PXY d   1       2.360  -0.065   1.175  0.00  0.00     0.003 A 
ENDROOT
TORSDOF 0
ENDMDL
