MODEL 1
REMARK minimizedAffinity 2.86383367
REMARK minimizedRMSD -1
REMARK  0 active torsions:
REMARK  status: ('A' for Active; 'I' for Inactive)
ROOT
ATOM      1  C4' PXY d   1       1.253   2.657   0.315  0.00  0.00     0.077 C 
ATOM      2  C1' PXY d   1       5.998  -0.460   1.406  0.00  0.00     0.077 C 
ATOM      3  C1  PXY d   1       4.759   0.368   1.125  0.00  0.00    -0.082 A 
ATOM      4  C2  PXY d   1       3.585  -0.230   1.007  0.00  0.00     0.003 A 
ATOM      5  C3  PXY d   1       2.460   0.500   0.722  0.00  0.00     0.003 A 
ATOM      6  C4  PXY d   1       2.529   1.862   0.608  0.00  0.00    -0.082 A 
ATOM      7  C5  PXY d   1       3.721   2.481   0.737  0.00  0.00     0.003 A 
ATOM      8  C6  PXY d   1       4.858   1.718   0.986  0.00  0.00     0.003 A 
ENDROOT
TORSDOF 0
ENDMDL
