MODEL 1
REMARK minimizedAffinity 2.69937253
REMARK minimizedRMSD -1
REMARK  0 active torsions:
REMARK  status: ('A' for Active; 'I' for Inactive)
ROOT
ATOM      1  C4' PXY d   1       1.524   2.683  -2.730  0.00  0.00     0.077 C 
ATOM      2  C1' PXY d   1       4.428  -0.366   1.230  0.00  0.00     0.077 C 
ATOM      3  C1  PXY d   1       3.678   0.436   0.185  0.00  0.00    -0.082 A 
ATOM      4  C2  PXY d   1       2.495   0.951   0.481  0.00  0.00     0.003 A 
ATOM      5  C3  PXY d   1       1.789   1.652  -0.462  0.00  0.00     0.003 A 
ATOM      6  C4  PXY d   1       2.321   1.874  -1.704  0.00  0.00    -0.082 A 
ATOM      7  C5  PXY d   1       3.532   1.361  -2.010  0.00  0.00     0.003 A 
ATOM      8  C6  PXY d   1       4.215   0.617  -1.052  0.00  0.00     0.003 A 
ENDROOT
TORSDOF 0
ENDMDL
