MODEL 1
REMARK minimizedAffinity 2.4308939
REMARK minimizedRMSD -1
REMARK  0 active torsions:
REMARK  status: ('A' for Active; 'I' for Inactive)
ROOT
ATOM      1  C4' PXY d   1       5.994  -0.660   1.945  0.00  0.00     0.077 C 
ATOM      2  C1' PXY d   1       1.470   2.564   0.345  0.00  0.00     0.077 C 
ATOM      3  C1  PXY d   1       2.664   1.726   0.758  0.00  0.00    -0.082 A 
ATOM      4  C2  PXY d   1       2.495   0.449   1.058  0.00  0.00     0.003 A 
ATOM      5  C3  PXY d   1       3.559  -0.315   1.465  0.00  0.00     0.003 A 
ATOM      6  C4  PXY d   1       4.818   0.221   1.513  0.00  0.00    -0.082 A 
ATOM      7  C5  PXY d   1       5.001   1.521   1.199  0.00  0.00     0.003 A 
ATOM      8  C6  PXY d   1       3.901   2.290   0.828  0.00  0.00     0.003 A 
ENDROOT
TORSDOF 0
ENDMDL
