MODEL 1
REMARK minimizedAffinity 3.51849866
REMARK minimizedRMSD -1
REMARK  0 active torsions:
REMARK  status: ('A' for Active; 'I' for Inactive)
ROOT
ATOM      1  C4' PXY d   1      -4.480  -3.912  -2.877  0.00  0.00     0.077 C 
ATOM      2  C1' PXY d   1      -0.298  -3.168   1.044  0.00  0.00     0.077 C 
ATOM      3  C1  PXY d   1      -1.395  -3.350   0.013  0.00  0.00    -0.082 A 
ATOM      4  C2  PXY d   1      -2.195  -4.401   0.089  0.00  0.00     0.003 A 
ATOM      5  C3  PXY d   1      -3.172  -4.598  -0.853  0.00  0.00     0.003 A 
ATOM      6  C4  PXY d   1      -3.365  -3.682  -1.853  0.00  0.00    -0.082 A 
ATOM      7  C5  PXY d   1      -2.560  -2.602  -1.930  0.00  0.00     0.003 A 
ATOM      8  C6  PXY d   1      -1.548  -2.442  -0.988  0.00  0.00     0.003 A 
ENDROOT
TORSDOF 0
ENDMDL
