MODEL 1
REMARK minimizedAffinity 11.9206209
REMARK minimizedRMSD -1
REMARK  0 active torsions:
REMARK  status: ('A' for Active; 'I' for Inactive)
ROOT
ATOM      1  C4' PXY d   1      -4.974  -3.268  -2.921  0.00  0.00     0.077 C 
ATOM      2  C1' PXY d   1       0.150  -2.419  -0.383  0.00  0.00     0.077 C 
ATOM      3  C1  PXY d   1      -1.190  -2.635  -1.059  0.00  0.00    -0.082 A 
ATOM      4  C2  PXY d   1      -2.261  -2.883  -0.323  0.00  0.00     0.003 A 
ATOM      5  C3  PXY d   1      -3.474  -3.112  -0.920  0.00  0.00     0.003 A 
ATOM      6  C4  PXY d   1      -3.603  -3.034  -2.281  0.00  0.00    -0.082 A 
ATOM      7  C5  PXY d   1      -2.517  -2.771  -3.038  0.00  0.00     0.003 A 
ATOM      8  C6  PXY d   1      -1.286  -2.583  -2.415  0.00  0.00     0.003 A 
ENDROOT
TORSDOF 0
ENDMDL
