MODEL 1
REMARK minimizedAffinity 10.3544559
REMARK minimizedRMSD -1
REMARK  0 active torsions:
REMARK  status: ('A' for Active; 'I' for Inactive)
ROOT
ATOM      1  C4' PXY d   1      -2.084  -2.492  -5.130  0.00  0.00     0.077 C 
ATOM      2  C1' PXY d   1      -2.524  -2.899   0.619  0.00  0.00     0.077 C 
ATOM      3  C1  PXY d   1      -2.412  -2.804  -0.890  0.00  0.00    -0.082 A 
ATOM      4  C2  PXY d   1      -1.596  -1.915  -1.431  0.00  0.00     0.003 A 
ATOM      5  C3  PXY d   1      -1.507  -1.795  -2.794  0.00  0.00     0.003 A 
ATOM      6  C4  PXY d   1      -2.221  -2.629  -3.611  0.00  0.00    -0.082 A 
ATOM      7  C5  PXY d   1      -3.048  -3.547  -3.067  0.00  0.00     0.003 A 
ATOM      8  C6  PXY d   1      -3.155  -3.625  -1.681  0.00  0.00     0.003 A 
ENDROOT
TORSDOF 0
ENDMDL
