MODEL 1
REMARK minimizedAffinity 2.28358555
REMARK minimizedRMSD -1
REMARK  0 active torsions:
REMARK  status: ('A' for Active; 'I' for Inactive)
ROOT
ATOM      1  C4' PXY d   1       2.521   2.204  -5.997  0.00  0.00     0.077 C 
ATOM      2  C1' PXY d   1       2.600   0.716  -0.412  0.00  0.00     0.077 C 
ATOM      3  C1  PXY d   1       2.592   1.107  -1.877  0.00  0.00    -0.082 A 
ATOM      4  C2  PXY d   1       1.521   1.686  -2.394  0.00  0.00     0.003 A 
ATOM      5  C3  PXY d   1       1.484   2.017  -3.724  0.00  0.00     0.003 A 
ATOM      6  C4  PXY d   1       2.576   1.801  -4.521  0.00  0.00    -0.082 A 
ATOM      7  C5  PXY d   1       3.677   1.221  -3.999  0.00  0.00     0.003 A 
ATOM      8  C6  PXY d   1       3.679   0.855  -2.656  0.00  0.00     0.003 A 
ENDROOT
TORSDOF 0
ENDMDL
