MODEL 1
REMARK minimizedAffinity 15.5781021
REMARK minimizedRMSD -1
REMARK  0 active torsions:
REMARK  status: ('A' for Active; 'I' for Inactive)
ROOT
ATOM      1  C4' PXY d   1       0.748   3.521   1.231  0.00  0.00     0.077 C 
ATOM      2  C1' PXY d   1       4.637  -0.694   0.508  0.00  0.00     0.077 C 
ATOM      3  C1  PXY d   1       3.607   0.402   0.699  0.00  0.00    -0.082 A 
ATOM      4  C2  PXY d   1       3.833   1.606   0.199  0.00  0.00     0.003 A 
ATOM      5  C3  PXY d   1       2.928   2.618   0.389  0.00  0.00     0.003 A 
ATOM      6  C4  PXY d   1       1.755   2.381   1.054  0.00  0.00    -0.082 A 
ATOM      7  C5  PXY d   1       1.512   1.153   1.559  0.00  0.00     0.003 A 
ATOM      8  C6  PXY d   1       2.462   0.151   1.390  0.00  0.00     0.003 A 
ENDROOT
TORSDOF 0
ENDMDL
