MODEL 1
REMARK minimizedAffinity 16.4369106
REMARK minimizedRMSD -1
REMARK  0 active torsions:
REMARK  status: ('A' for Active; 'I' for Inactive)
ROOT
ATOM      1  C4' PXY d   1      -2.640  -2.551  -2.630  0.00  0.00     0.077 C 
ATOM      2  C1' PXY d   1      -1.413  -4.114   2.798  0.00  0.00     0.077 C 
ATOM      3  C1  PXY d   1      -1.731  -3.692   1.377  0.00  0.00    -0.082 A 
ATOM      4  C2  PXY d   1      -2.588  -4.401   0.661  0.00  0.00     0.003 A 
ATOM      5  C3  PXY d   1      -2.863  -4.052  -0.636  0.00  0.00     0.003 A 
ATOM      6  C4  PXY d   1      -2.296  -2.935  -1.188  0.00  0.00    -0.082 A 
ATOM      7  C5  PXY d   1      -1.428  -2.200  -0.460  0.00  0.00     0.003 A 
ATOM      8  C6  PXY d   1      -1.131  -2.595   0.841  0.00  0.00     0.003 A 
ENDROOT
TORSDOF 0
ENDMDL
