MODEL 1
REMARK minimizedAffinity 0.0996397287
REMARK minimizedRMSD -1
REMARK  0 active torsions:
REMARK  status: ('A' for Active; 'I' for Inactive)
ROOT
ATOM      1  C4' PXY d   1      -4.343  -4.698  -3.126  0.00  0.00     0.077 C 
ATOM      2  C1' PXY d   1      -1.121  -3.201   1.434  0.00  0.00     0.077 C 
ATOM      3  C1  PXY d   1      -1.967  -3.581   0.235  0.00  0.00    -0.082 A 
ATOM      4  C2  PXY d   1      -2.648  -4.715   0.248  0.00  0.00     0.003 A 
ATOM      5  C3  PXY d   1      -3.393  -5.089  -0.841  0.00  0.00     0.003 A 
ATOM      6  C4  PXY d   1      -3.483  -4.269  -1.933  0.00  0.00    -0.082 A 
ATOM      7  C5  PXY d   1      -2.800  -3.105  -1.950  0.00  0.00     0.003 A 
ATOM      8  C6  PXY d   1      -2.017  -2.763  -0.851  0.00  0.00     0.003 A 
ENDROOT
TORSDOF 0
ENDMDL
