MODEL 1
REMARK minimizedAffinity 11.2250004
REMARK minimizedRMSD -1
REMARK  0 active torsions:
REMARK  status: ('A' for Active; 'I' for Inactive)
ROOT
ATOM      1  C4' PXY d   1       5.169  -0.606   0.422  0.00  0.00     0.077 C 
ATOM      2  C1' PXY d   1       2.204   2.603  -3.364  0.00  0.00     0.077 C 
ATOM      3  C1  PXY d   1       2.976   1.767  -2.361  0.00  0.00    -0.082 A 
ATOM      4  C2  PXY d   1       4.146   1.252  -2.702  0.00  0.00     0.003 A 
ATOM      5  C3  PXY d   1       4.842   0.467  -1.818  0.00  0.00     0.003 A 
ATOM      6  C4  PXY d   1       4.360   0.252  -0.555  0.00  0.00    -0.082 A 
ATOM      7  C5  PXY d   1       3.172   0.783  -0.196  0.00  0.00     0.003 A 
ATOM      8  C6  PXY d   1       2.462   1.543  -1.121  0.00  0.00     0.003 A 
ENDROOT
TORSDOF 0
ENDMDL
