MODEL 1
REMARK minimizedAffinity -3.88784194
REMARK minimizedRMSD -1
REMARK  1 active torsions:
REMARK  status: ('A' for Active; 'I' for Inactive)
REMARK    1  A    between atoms: C1_2  and  C2_3 
ROOT
ATOM      1  C2  UNL d   1      -5.472  -4.799  -3.442  0.00  0.00    -0.077 A 
ATOM      2  C3  UNL d   1      -4.449  -5.740  -3.630  0.00  0.00     0.002 A 
ATOM      3  C4  UNL d   1      -3.930  -5.972  -4.905  0.00  0.00     0.002 A 
ATOM      4  C5  UNL d   1      -4.423  -5.266  -6.000  0.00  0.00    -0.004 A 
ATOM      5  C6  UNL d   1      -5.442  -4.330  -5.823  0.00  0.00     0.002 A 
ATOM      6  C7  UNL d   1      -5.964  -4.097  -4.550  0.00  0.00     0.002 A 
ENDROOT
BRANCH   1   7
ATOM      7  C1  UNL d   1      -6.000  -4.512  -2.060  0.00  0.00     0.055 C 
ATOM      8  C   UNL d   1      -5.992  -3.019  -1.765  0.00  0.00     0.019 C 
ENDBRANCH   1   7
TORSDOF 1
ENDMDL
