MODEL 1
REMARK minimizedAffinity -1.28038907
REMARK minimizedRMSD -1
REMARK  1 active torsions:
REMARK  status: ('A' for Active; 'I' for Inactive)
REMARK    1  A    between atoms: C1_2  and  C2_3 
ROOT
ATOM      1  C2  UNL d   1      -5.534  -4.550  -4.236  0.00  0.00    -0.077 A 
ATOM      2  C3  UNL d   1      -4.904  -5.744  -3.858  0.00  0.00     0.002 A 
ATOM      3  C4  UNL d   1      -4.567  -5.972  -2.523  0.00  0.00     0.002 A 
ATOM      4  C5  UNL d   1      -4.860  -5.014  -1.554  0.00  0.00    -0.004 A 
ATOM      5  C6  UNL d   1      -5.485  -3.823  -1.920  0.00  0.00     0.002 A 
ATOM      6  C7  UNL d   1      -5.821  -3.592  -3.255  0.00  0.00     0.002 A 
ENDROOT
BRANCH   1   7
ATOM      7  C1  UNL d   1      -5.943  -4.322  -5.668  0.00  0.00     0.055 C 
ATOM      8  C   UNL d   1      -6.000  -2.838  -5.998  0.00  0.00     0.019 C 
ENDBRANCH   1   7
TORSDOF 1
ENDMDL
