MODEL 1
REMARK minimizedAffinity 0.467702121
REMARK minimizedRMSD -1
REMARK  1 active torsions:
REMARK  status: ('A' for Active; 'I' for Inactive)
REMARK    1  A    between atoms: C1_2  and  C2_3 
ROOT
ATOM      1  C2  UNL d   1      -5.527  -3.579  -4.198  0.00  0.00    -0.077 A 
ATOM      2  C3  UNL d   1      -5.594  -4.849  -4.789  0.00  0.00     0.002 A 
ATOM      3  C4  UNL d   1      -5.465  -5.999  -4.007  0.00  0.00     0.002 A 
ATOM      4  C5  UNL d   1      -5.274  -5.891  -2.631  0.00  0.00    -0.004 A 
ATOM      5  C6  UNL d   1      -5.204  -4.632  -2.035  0.00  0.00     0.002 A 
ATOM      6  C7  UNL d   1      -5.331  -3.482  -2.815  0.00  0.00     0.002 A 
ENDROOT
BRANCH   1   7
ATOM      7  C1  UNL d   1      -5.715  -2.339  -5.033  0.00  0.00     0.055 C 
ATOM      8  C   UNL d   1      -4.551  -2.137  -5.992  0.00  0.00     0.019 C 
ENDBRANCH   1   7
TORSDOF 1
ENDMDL
