MODEL 1
REMARK minimizedAffinity 0.254109979
REMARK minimizedRMSD -1
REMARK  1 active torsions:
REMARK  status: ('A' for Active; 'I' for Inactive)
REMARK    1  A    between atoms: C1_2  and  C2_3 
ROOT
ATOM      1  C2  UNL d   1       4.503  -1.500  -3.798  0.00  0.00    -0.077 A 
ATOM      2  C3  UNL d   1       3.780  -0.350  -4.142  0.00  0.00     0.002 A 
ATOM      3  C4  UNL d   1       4.165   0.425  -5.238  0.00  0.00     0.002 A 
ATOM      4  C5  UNL d   1       5.272   0.056  -6.000  0.00  0.00    -0.004 A 
ATOM      5  C6  UNL d   1       5.999  -1.086  -5.664  0.00  0.00     0.002 A 
ATOM      6  C7  UNL d   1       5.616  -1.861  -4.568  0.00  0.00     0.002 A 
ENDROOT
BRANCH   1   7
ATOM      7  C1  UNL d   1       4.060  -2.364  -2.646  0.00  0.00     0.055 C 
ATOM      8  C   UNL d   1       2.565  -2.642  -2.706  0.00  0.00     0.019 C 
ENDBRANCH   1   7
TORSDOF 1
ENDMDL
