MODEL 1
REMARK minimizedAffinity 0.779292285
REMARK minimizedRMSD -1
REMARK  1 active torsions:
REMARK  status: ('A' for Active; 'I' for Inactive)
REMARK    1  A    between atoms: C1_2  and  C2_3 
ROOT
ATOM      1  C2  UNL d   1      -5.357  -4.607  -4.015  0.00  0.00    -0.077 A 
ATOM      2  C3  UNL d   1      -5.033  -3.405  -3.370  0.00  0.00     0.002 A 
ATOM      3  C4  UNL d   1      -4.447  -3.420  -2.103  0.00  0.00     0.002 A 
ATOM      4  C5  UNL d   1      -4.176  -4.632  -1.472  0.00  0.00    -0.004 A 
ATOM      5  C6  UNL d   1      -4.497  -5.833  -2.105  0.00  0.00     0.002 A 
ATOM      6  C7  UNL d   1      -5.083  -5.820  -3.371  0.00  0.00     0.002 A 
ENDROOT
BRANCH   1   7
ATOM      7  C1  UNL d   1      -5.943  -4.594  -5.403  0.00  0.00     0.055 C 
ATOM      8  C   UNL d   1      -5.999  -5.996  -5.993  0.00  0.00     0.019 C 
ENDBRANCH   1   7
TORSDOF 1
ENDMDL
