MODEL 1
REMARK minimizedAffinity 5.78036308
REMARK minimizedRMSD -1
REMARK  1 active torsions:
REMARK  status: ('A' for Active; 'I' for Inactive)
REMARK    1  A    between atoms: C1_2  and  C2_3 
ROOT
ATOM      1  C2  UNL d   1       4.485  -0.500  -3.755  0.00  0.00    -0.077 A 
ATOM      2  C3  UNL d   1       3.656   0.554  -4.163  0.00  0.00     0.002 A 
ATOM      3  C4  UNL d   1       3.991   1.325  -5.278  0.00  0.00     0.002 A 
ATOM      4  C5  UNL d   1       5.152   1.047  -5.996  0.00  0.00    -0.004 A 
ATOM      5  C6  UNL d   1       5.984   0.002  -5.597  0.00  0.00     0.002 A 
ATOM      6  C7  UNL d   1       5.652  -0.768  -4.482  0.00  0.00     0.002 A 
ENDROOT
BRANCH   1   7
ATOM      7  C1  UNL d   1       4.101  -1.363  -2.582  0.00  0.00     0.055 C 
ATOM      8  C   UNL d   1       2.666  -1.855  -2.703  0.00  0.00     0.019 C 
ENDBRANCH   1   7
TORSDOF 1
ENDMDL
