MODEL 1
REMARK minimizedAffinity -0.190306872
REMARK minimizedRMSD -1
REMARK  1 active torsions:
REMARK  status: ('A' for Active; 'I' for Inactive)
REMARK    1  A    between atoms: C1_2  and  C2_3 
ROOT
ATOM      1  C2  UNL d   1      -5.549  -5.193  -3.536  0.00  0.00    -0.077 A 
ATOM      2  C3  UNL d   1      -5.599  -3.795  -3.628  0.00  0.00     0.002 A 
ATOM      3  C4  UNL d   1      -5.397  -3.160  -4.855  0.00  0.00     0.002 A 
ATOM      4  C5  UNL d   1      -5.150  -3.915  -6.000  0.00  0.00    -0.004 A 
ATOM      5  C6  UNL d   1      -5.097  -5.306  -5.919  0.00  0.00     0.002 A 
ATOM      6  C7  UNL d   1      -5.297  -5.942  -4.693  0.00  0.00     0.002 A 
ENDROOT
BRANCH   1   7
ATOM      7  C1  UNL d   1      -5.815  -5.883  -2.224  0.00  0.00     0.055 C 
ATOM      8  C   UNL d   1      -5.820  -4.891  -1.069  0.00  0.00     0.019 C 
ENDBRANCH   1   7
TORSDOF 1
ENDMDL
