MODEL 1
REMARK minimizedAffinity 0.0835033134
REMARK minimizedRMSD -1
REMARK  1 active torsions:
REMARK  status: ('A' for Active; 'I' for Inactive)
REMARK    1  A    between atoms: C1_2  and  C2_3 
ROOT
ATOM      1  C2  UNL d   1       3.543  -1.618  -3.689  0.00  0.00    -0.077 A 
ATOM      2  C3  UNL d   1       3.584  -0.807  -4.832  0.00  0.00     0.002 A 
ATOM      3  C4  UNL d   1       4.807  -0.366  -5.342  0.00  0.00     0.002 A 
ATOM      4  C5  UNL d   1       5.997  -0.734  -4.718  0.00  0.00    -0.004 A 
ATOM      5  C6  UNL d   1       5.967  -1.538  -3.579  0.00  0.00     0.002 A 
ATOM      6  C7  UNL d   1       4.745  -1.979  -3.068  0.00  0.00     0.002 A 
ENDROOT
BRANCH   1   7
ATOM      7  C1  UNL d   1       2.228  -2.135  -3.167  0.00  0.00     0.055 C 
ATOM      8  C   UNL d   1       2.299  -3.625  -2.868  0.00  0.00     0.019 C 
ENDBRANCH   1   7
TORSDOF 1
ENDMDL
