MODEL 1
REMARK minimizedAffinity 0.605662525
REMARK minimizedRMSD -1
REMARK  1 active torsions:
REMARK  status: ('A' for Active; 'I' for Inactive)
REMARK    1  A    between atoms: C1_2  and  C2_3 
ROOT
ATOM      1  C2  UNL d   1      -5.216  -4.269  -3.241  0.00  0.00    -0.077 A 
ATOM      2  C3  UNL d   1      -4.802  -5.554  -3.617  0.00  0.00     0.002 A 
ATOM      3  C4  UNL d   1      -4.974  -5.996  -4.931  0.00  0.00     0.002 A 
ATOM      4  C5  UNL d   1      -5.555  -5.157  -5.879  0.00  0.00    -0.004 A 
ATOM      5  C6  UNL d   1      -5.971  -3.877  -5.515  0.00  0.00     0.002 A 
ATOM      6  C7  UNL d   1      -5.802  -3.435  -4.202  0.00  0.00     0.002 A 
ENDROOT
BRANCH   1   7
ATOM      7  C1  UNL d   1      -4.987  -3.773  -1.837  0.00  0.00     0.055 C 
ATOM      8  C   UNL d   1      -5.830  -2.541  -1.541  0.00  0.00     0.019 C 
ENDBRANCH   1   7
TORSDOF 1
ENDMDL
