MODEL 1
REMARK minimizedAffinity -1.74575067
REMARK minimizedRMSD -1
REMARK  1 active torsions:
REMARK  status: ('A' for Active; 'I' for Inactive)
REMARK    1  A    between atoms: C1_2  and  C2_3 
ROOT
ATOM      1  C2  UNL d   1      -5.645  -4.410  -3.396  0.00  0.00    -0.077 A 
ATOM      2  C3  UNL d   1      -4.931  -5.598  -3.608  0.00  0.00     0.002 A 
ATOM      3  C4  UNL d   1      -4.580  -5.989  -4.902  0.00  0.00     0.002 A 
ATOM      4  C5  UNL d   1      -4.934  -5.197  -5.991  0.00  0.00    -0.004 A 
ATOM      5  C6  UNL d   1      -5.646  -4.015  -5.791  0.00  0.00     0.002 A 
ATOM      6  C7  UNL d   1      -5.999  -3.622  -4.499  0.00  0.00     0.002 A 
ENDROOT
BRANCH   1   7
ATOM      7  C1  UNL d   1      -5.982  -3.961  -1.998  0.00  0.00     0.055 C 
ATOM      8  C   UNL d   1      -5.961  -2.444  -1.883  0.00  0.00     0.019 C 
ENDBRANCH   1   7
TORSDOF 1
ENDMDL
