MODEL 1
REMARK minimizedAffinity 0.150030762
REMARK minimizedRMSD -1
REMARK  1 active torsions:
REMARK  status: ('A' for Active; 'I' for Inactive)
REMARK    1  A    between atoms: C1_2  and  C2_3 
ROOT
ATOM      1  C2  UNL d   1       1.219   2.837   0.235  0.00  0.00    -0.077 A 
ATOM      2  C3  UNL d   1      -0.090   2.375   0.036  0.00  0.00     0.002 A 
ATOM      3  C4  UNL d   1      -0.954   3.050  -0.828  0.00  0.00     0.002 A 
ATOM      4  C5  UNL d   1      -0.518   4.189  -1.503  0.00  0.00    -0.004 A 
ATOM      5  C6  UNL d   1       0.781   4.658  -1.310  0.00  0.00     0.002 A 
ATOM      6  C7  UNL d   1       1.646   3.984  -0.446  0.00  0.00     0.002 A 
ENDROOT
BRANCH   1   7
ATOM      7  C1  UNL d   1       2.168   2.082   1.128  0.00  0.00     0.055 C 
ATOM      8  C   UNL d   1       2.183   0.598   0.790  0.00  0.00     0.019 C 
ENDBRANCH   1   7
TORSDOF 1
ENDMDL
