MODEL 1
REMARK minimizedAffinity -1.05559433
REMARK minimizedRMSD -1
REMARK  1 active torsions:
REMARK  status: ('A' for Active; 'I' for Inactive)
REMARK    1  A    between atoms: C1_2  and  C2_3 
ROOT
ATOM      1  C2  UNL d   1      -4.444  -5.255  -3.756  0.00  0.00    -0.077 A 
ATOM      2  C3  UNL d   1      -5.453  -4.293  -3.612  0.00  0.00     0.002 A 
ATOM      3  C4  UNL d   1      -5.954  -3.979  -2.346  0.00  0.00     0.002 A 
ATOM      4  C5  UNL d   1      -5.448  -4.619  -1.217  0.00  0.00    -0.004 A 
ATOM      5  C6  UNL d   1      -4.445  -5.578  -1.350  0.00  0.00     0.002 A 
ATOM      6  C7  UNL d   1      -3.944  -5.894  -2.614  0.00  0.00     0.002 A 
ENDROOT
BRANCH   1   7
ATOM      7  C1  UNL d   1      -3.868  -5.559  -5.115  0.00  0.00     0.055 C 
ATOM      8  C   UNL d   1      -3.853  -4.321  -6.000  0.00  0.00     0.019 C 
ENDBRANCH   1   7
TORSDOF 1
ENDMDL
