MODEL 1
REMARK minimizedAffinity 1.43609834
REMARK minimizedRMSD -1
REMARK  1 active torsions:
REMARK  status: ('A' for Active; 'I' for Inactive)
REMARK    1  A    between atoms: C1_2  and  C2_3 
ROOT
ATOM      1  C2  UNL d   1       4.865   0.024  -3.421  0.00  0.00    -0.077 A 
ATOM      2  C3  UNL d   1       5.628  -0.806  -4.254  0.00  0.00     0.002 A 
ATOM      3  C4  UNL d   1       5.994  -0.380  -5.532  0.00  0.00     0.002 A 
ATOM      4  C5  UNL d   1       5.605   0.878  -5.987  0.00  0.00    -0.004 A 
ATOM      5  C6  UNL d   1       4.844   1.710  -5.167  0.00  0.00     0.002 A 
ATOM      6  C7  UNL d   1       4.476   1.285  -3.889  0.00  0.00     0.002 A 
ENDROOT
BRANCH   1   7
ATOM      7  C1  UNL d   1       4.511  -0.414  -2.024  0.00  0.00     0.055 C 
ATOM      8  C   UNL d   1       3.223  -1.225  -2.007  0.00  0.00     0.019 C 
ENDBRANCH   1   7
TORSDOF 1
ENDMDL
