MODEL 1
REMARK minimizedAffinity -1.3536855
REMARK minimizedRMSD -1
REMARK  0 active torsions:
REMARK  status: ('A' for Active; 'I' for Inactive)
ROOT
ATOM      1  C1  DEN d   1      -0.906  -1.044   0.063  0.00  0.00     0.130 A 
ATOM      2  C2  DEN d   1       0.277  -0.296  -0.355  0.00  0.00    -0.031 A 
ATOM      3  C3  DEN d   1       0.192  -0.085  -1.814  0.00  0.00     0.027 A 
ATOM      4  C4  DEN d   1      -1.650  -0.834  -3.457  0.00  0.00     0.027 A 
ATOM      5  C5  DEN d   1      -2.846  -1.507  -3.572  0.00  0.00    -0.003 A 
ATOM      6  C6  DEN d   1      -3.457  -2.098  -2.497  0.00  0.00     0.001 A 
ATOM      7  C7  DEN d   1      -2.897  -1.987  -1.252  0.00  0.00     0.017 A 
ATOM      8  C8  DEN d   1      -1.687  -1.317  -1.130  0.00  0.00    -0.094 A 
ATOM      9  C9  DEN d   1      -1.091  -0.716  -2.226  0.00  0.00    -0.072 A 
ENDROOT
TORSDOF 0
ENDMDL
