MODEL 1
REMARK minimizedAffinity -1.9648248
REMARK minimizedRMSD -1
REMARK  0 active torsions:
REMARK  status: ('A' for Active; 'I' for Inactive)
ROOT
ATOM      1  C1  DEN d   1       1.421   2.501   0.175  0.00  0.00     0.130 A 
ATOM      2  C2  DEN d   1       1.058   3.105   1.454  0.00  0.00    -0.031 A 
ATOM      3  C3  DEN d   1       0.197   2.151   2.181  0.00  0.00     0.027 A 
ATOM      4  C4  DEN d   1      -0.604  -0.191   1.456  0.00  0.00     0.027 A 
ATOM      5  C5  DEN d   1      -0.565  -1.128   0.447  0.00  0.00    -0.003 A 
ATOM      6  C6  DEN d   1       0.105  -0.909  -0.728  0.00  0.00     0.001 A 
ATOM      7  C7  DEN d   1       0.801   0.258  -0.905  0.00  0.00     0.017 A 
ATOM      8  C8  DEN d   1       0.760   1.210   0.105  0.00  0.00    -0.094 A 
ATOM      9  C9  DEN d   1       0.088   0.965   1.290  0.00  0.00    -0.072 A 
ENDROOT
TORSDOF 0
ENDMDL
