MODEL 1
REMARK minimizedAffinity -1.2390697
REMARK minimizedRMSD -1
REMARK  0 active torsions:
REMARK  status: ('A' for Active; 'I' for Inactive)
ROOT
ATOM      1  C1  DEN d   1      -2.024  -0.690  -3.782  0.00  0.00     0.130 A 
ATOM      2  C2  DEN d   1      -3.387  -1.188  -3.621  0.00  0.00    -0.031 A 
ATOM      3  C3  DEN d   1      -3.467  -1.887  -2.322  0.00  0.00     0.027 A 
ATOM      4  C4  DEN d   1      -1.624  -2.239  -0.553  0.00  0.00     0.027 A 
ATOM      5  C5  DEN d   1      -0.301  -2.007  -0.249  0.00  0.00    -0.003 A 
ATOM      6  C6  DEN d   1       0.543  -1.356  -1.109  0.00  0.00     0.001 A 
ATOM      7  C7  DEN d   1       0.061  -0.872  -2.297  0.00  0.00     0.017 A 
ATOM      8  C8  DEN d   1      -1.271  -1.109  -2.613  0.00  0.00    -0.094 A 
ATOM      9  C9  DEN d   1      -2.110  -1.759  -1.725  0.00  0.00    -0.072 A 
ENDROOT
TORSDOF 0
ENDMDL
