MODEL 1
REMARK minimizedAffinity -4.15301943
REMARK minimizedRMSD -1
REMARK  0 active torsions:
REMARK  status: ('A' for Active; 'I' for Inactive)
ROOT
ATOM      1  C1  DEN d   1       0.788   2.649   0.142  0.00  0.00     0.130 A 
ATOM      2  C2  DEN d   1       0.977   2.868   1.573  0.00  0.00    -0.031 A 
ATOM      3  C3  DEN d   1       0.533   1.652   2.284  0.00  0.00     0.027 A 
ATOM      4  C4  DEN d   1      -0.420  -0.539   1.312  0.00  0.00     0.027 A 
ATOM      5  C5  DEN d   1      -0.778  -1.190   0.153  0.00  0.00    -0.003 A 
ATOM      6  C6  DEN d   1      -0.672  -0.600  -1.079  0.00  0.00     0.001 A 
ATOM      7  C7  DEN d   1      -0.154   0.664  -1.184  0.00  0.00     0.017 A 
ATOM      8  C8  DEN d   1       0.202   1.330  -0.018  0.00  0.00    -0.094 A 
ATOM      9  C9  DEN d   1       0.099   0.711   1.216  0.00  0.00    -0.072 A 
ENDROOT
TORSDOF 0
ENDMDL
