MODEL 1
REMARK minimizedAffinity -3.2053256
REMARK minimizedRMSD -1
REMARK  0 active torsions:
REMARK  status: ('A' for Active; 'I' for Inactive)
ROOT
ATOM      1  C1  DEN d   1       0.692   0.121  -1.257  0.00  0.00     0.130 A 
ATOM      2  C2  DEN d   1      -0.083  -1.090  -1.005  0.00  0.00    -0.031 A 
ATOM      3  C3  DEN d   1      -0.538  -1.058   0.399  0.00  0.00     0.027 A 
ATOM      4  C4  DEN d   1      -0.122   0.744   2.198  0.00  0.00     0.027 A 
ATOM      5  C5  DEN d   1       0.491   1.950   2.458  0.00  0.00    -0.003 A 
ATOM      6  C6  DEN d   1       1.236   2.608   1.516  0.00  0.00     0.001 A 
ATOM      7  C7  DEN d   1       1.350   2.087   0.255  0.00  0.00     0.017 A 
ATOM      8  C8  DEN d   1       0.741   0.868  -0.013  0.00  0.00    -0.094 A 
ATOM      9  C9  DEN d   1      -0.018   0.224   0.949  0.00  0.00    -0.072 A 
ENDROOT
TORSDOF 0
ENDMDL
