MODEL 1
REMARK minimizedAffinity -1.78079975
REMARK minimizedRMSD -1
REMARK  0 active torsions:
REMARK  status: ('A' for Active; 'I' for Inactive)
ROOT
ATOM      1  C1  DEN d   1      -1.408  -0.819   0.762  0.00  0.00     0.130 A 
ATOM      2  C2  DEN d   1      -1.312  -1.406  -0.572  0.00  0.00    -0.031 A 
ATOM      3  C3  DEN d   1      -0.081  -0.894  -1.208  0.00  0.00     0.027 A 
ATOM      4  C4  DEN d   1       1.677   0.738  -0.261  0.00  0.00     0.027 A 
ATOM      5  C5  DEN d   1       2.020   1.512   0.825  0.00  0.00    -0.003 A 
ATOM      6  C6  DEN d   1       1.234   1.589   1.944  0.00  0.00     0.001 A 
ATOM      7  C7  DEN d   1       0.086   0.844   2.020  0.00  0.00     0.017 A 
ATOM      8  C8  DEN d   1      -0.270   0.067   0.926  0.00  0.00    -0.094 A 
ATOM      9  C9  DEN d   1       0.545  -0.007  -0.191  0.00  0.00    -0.072 A 
ENDROOT
TORSDOF 0
ENDMDL
