MODEL 1
REMARK minimizedAffinity -3.32972169
REMARK minimizedRMSD -1
REMARK  0 active torsions:
REMARK  status: ('A' for Active; 'I' for Inactive)
ROOT
ATOM      1  C1  DEN d   1       0.437   0.108  -1.096  0.00  0.00     0.130 A 
ATOM      2  C2  DEN d   1       0.492  -0.257   0.317  0.00  0.00    -0.031 A 
ATOM      3  C3  DEN d   1      -0.603  -1.211   0.585  0.00  0.00     0.027 A 
ATOM      4  C4  DEN d   1      -2.365  -2.158  -1.044  0.00  0.00     0.027 A 
ATOM      5  C5  DEN d   1      -2.821  -2.133  -2.343  0.00  0.00    -0.003 A 
ATOM      6  C6  DEN d   1      -2.249  -1.340  -3.302  0.00  0.00     0.001 A 
ATOM      7  C7  DEN d   1      -1.159  -0.572  -2.987  0.00  0.00     0.017 A 
ATOM      8  C8  DEN d   1      -0.698  -0.587  -1.677  0.00  0.00    -0.094 A 
ATOM      9  C9  DEN d   1      -1.282  -1.405  -0.725  0.00  0.00    -0.072 A 
ENDROOT
TORSDOF 0
ENDMDL
