MODEL 1
REMARK minimizedAffinity -2.03404474
REMARK minimizedRMSD -1
REMARK  0 active torsions:
REMARK  status: ('A' for Active; 'I' for Inactive)
ROOT
ATOM      1  C1  DEN d   1       1.843   2.164   0.402  0.00  0.00     0.130 A 
ATOM      2  C2  DEN d   1       1.436   2.751   1.676  0.00  0.00    -0.031 A 
ATOM      3  C3  DEN d   1       0.323   1.944   2.216  0.00  0.00     0.027 A 
ATOM      4  C4  DEN d   1      -0.800  -0.148   1.210  0.00  0.00     0.027 A 
ATOM      5  C5  DEN d   1      -0.806  -1.014   0.139  0.00  0.00    -0.003 A 
ATOM      6  C6  DEN d   1       0.040  -0.862  -0.927  0.00  0.00     0.001 A 
ATOM      7  C7  DEN d   1       0.960   0.153  -0.924  0.00  0.00     0.017 A 
ATOM      8  C8  DEN d   1       0.967   1.034   0.149  0.00  0.00    -0.094 A 
ATOM      9  C9  DEN d   1       0.112   0.856   1.223  0.00  0.00    -0.072 A 
ENDROOT
TORSDOF 0
ENDMDL
