MODEL 1
REMARK minimizedAffinity -0.913749874
REMARK minimizedRMSD -1
REMARK  0 active torsions:
REMARK  status: ('A' for Active; 'I' for Inactive)
ROOT
ATOM      1  C1  DEN d   1      -5.731  -2.985  -1.947  0.00  0.00     0.130 A 
ATOM      2  C2  DEN d   1      -5.650  -3.877  -0.793  0.00  0.00    -0.031 A 
ATOM      3  C3  DEN d   1      -4.253  -3.880  -0.316  0.00  0.00     0.027 A 
ATOM      4  C4  DEN d   1      -2.219  -2.592  -1.242  0.00  0.00     0.027 A 
ATOM      5  C5  DEN d   1      -1.793  -1.718  -2.218  0.00  0.00    -0.003 A 
ATOM      6  C6  DEN d   1      -2.635  -1.236  -3.184  0.00  0.00     0.001 A 
ATOM      7  C7  DEN d   1      -3.959  -1.589  -3.169  0.00  0.00     0.017 A 
ATOM      8  C8  DEN d   1      -4.394  -2.476  -2.193  0.00  0.00    -0.094 A 
ATOM      9  C9  DEN d   1      -3.530  -2.943  -1.217  0.00  0.00    -0.072 A 
ENDROOT
TORSDOF 0
ENDMDL
