MODEL 1
REMARK minimizedAffinity -6.83535051
REMARK minimizedRMSD -1
REMARK  0 active torsions:
REMARK  status: ('A' for Active; 'I' for Inactive)
ROOT
ATOM      1  C1  DEN d   1       2.481   2.432   1.148  0.00  0.00     0.130 A 
ATOM      2  C2  DEN d   1       3.448   1.627   0.405  0.00  0.00    -0.031 A 
ATOM      3  C3  DEN d   1       2.760   0.409  -0.066  0.00  0.00     0.027 A 
ATOM      4  C4  DEN d   1       0.305  -0.304   0.275  0.00  0.00     0.027 A 
ATOM      5  C5  DEN d   1      -0.897   0.048   0.849  0.00  0.00    -0.003 A 
ATOM      6  C6  DEN d   1      -1.047   1.193   1.585  0.00  0.00     0.001 A 
ATOM      7  C7  DEN d   1       0.012   2.051   1.729  0.00  0.00     0.017 A 
ATOM      8  C8  DEN d   1       1.228   1.699   1.160  0.00  0.00    -0.094 A 
ATOM      9  C9  DEN d   1       1.356   0.543   0.409  0.00  0.00    -0.072 A 
ENDROOT
TORSDOF 0
ENDMDL
