MODEL 1
REMARK minimizedAffinity -3.52114129
REMARK minimizedRMSD -1
REMARK  0 active torsions:
REMARK  status: ('A' for Active; 'I' for Inactive)
ROOT
ATOM      1  C1  DEN d   1       2.140   0.515   0.365  0.00  0.00     0.130 A 
ATOM      2  C2  DEN d   1       2.039   1.579   1.360  0.00  0.00    -0.031 A 
ATOM      3  C3  DEN d   1       0.624   1.689   1.769  0.00  0.00     0.027 A 
ATOM      4  C4  DEN d   1      -1.408   0.320   0.965  0.00  0.00     0.027 A 
ATOM      5  C5  DEN d   1      -1.821  -0.686   0.120  0.00  0.00    -0.003 A 
ATOM      6  C6  DEN d   1      -0.955  -1.334  -0.721  0.00  0.00     0.001 A 
ATOM      7  C7  DEN d   1       0.377  -1.013  -0.702  0.00  0.00     0.017 A 
ATOM      8  C8  DEN d   1       0.799   0.005   0.142  0.00  0.00    -0.094 A 
ATOM      9  C9  DEN d   1      -0.090   0.639   0.994  0.00  0.00    -0.072 A 
ENDROOT
TORSDOF 0
ENDMDL
