MODEL 1
REMARK minimizedAffinity 3.25017619
REMARK minimizedRMSD -1
REMARK  0 active torsions:
REMARK  status: ('A' for Active; 'I' for Inactive)
ROOT
ATOM      1  C1  BNZ d   1       3.730  -3.731   1.140  0.00  0.00     0.000 A 
ATOM      2  C2  BNZ d   1       4.468  -4.089   2.236  0.00  0.00     0.000 A 
ATOM      3  C3  BNZ d   1       5.245  -5.214   2.221  0.00  0.00     0.000 A 
ATOM      4  C4  BNZ d   1       5.251  -6.000   1.125  0.00  0.00     0.000 A 
ATOM      5  C5  BNZ d   1       4.505  -5.658   0.015  0.00  0.00     0.000 A 
ATOM      6  C6  BNZ d   1       3.755  -4.504   0.020  0.00  0.00     0.000 A 
ENDROOT
TORSDOF 0
ENDMDL
