MODEL 1
REMARK minimizedAffinity 3.01481938
REMARK minimizedRMSD -1
REMARK  0 active torsions:
REMARK  status: ('A' for Active; 'I' for Inactive)
ROOT
ATOM      1  C1  BNZ d   1       1.134   5.999   5.986  0.00  0.00     0.000 A 
ATOM      2  C2  BNZ d   1      -0.159   5.990   5.536  0.00  0.00     0.000 A 
ATOM      3  C3  BNZ d   1      -0.684   4.878   4.938  0.00  0.00     0.000 A 
ATOM      4  C4  BNZ d   1       0.096   3.793   4.755  0.00  0.00     0.000 A 
ATOM      5  C5  BNZ d   1       1.405   3.791   5.194  0.00  0.00     0.000 A 
ATOM      6  C6  BNZ d   1       1.918   4.898   5.831  0.00  0.00     0.000 A 
ENDROOT
TORSDOF 0
ENDMDL
