MODEL 1
REMARK minimizedAffinity 4.51613426
REMARK minimizedRMSD -1
REMARK  0 active torsions:
REMARK  status: ('A' for Active; 'I' for Inactive)
ROOT
ATOM      1  C1  BNZ d   1      -0.017  -0.650   1.167  0.00  0.00     0.000 A 
ATOM      2  C2  BNZ d   1      -0.560  -0.754   2.420  0.00  0.00     0.000 A 
ATOM      3  C3  BNZ d   1      -1.882  -0.484   2.634  0.00  0.00     0.000 A 
ATOM      4  C4  BNZ d   1      -2.651  -0.074   1.605  0.00  0.00     0.000 A 
ATOM      5  C5  BNZ d   1      -2.117   0.044   0.337  0.00  0.00     0.000 A 
ATOM      6  C6  BNZ d   1      -0.794  -0.265   0.118  0.00  0.00     0.000 A 
ENDROOT
TORSDOF 0
ENDMDL
