MODEL 1
REMARK minimizedAffinity -0.399661452
REMARK minimizedRMSD -1
REMARK  0 active torsions:
REMARK  status: ('A' for Active; 'I' for Inactive)
ROOT
ATOM      1  C1  BNZ d   1       1.674   5.983   3.380  0.00  0.00     0.000 A 
ATOM      2  C2  BNZ d   1       0.916   5.978   4.521  0.00  0.00     0.000 A 
ATOM      3  C3  BNZ d   1       1.506   5.998   5.753  0.00  0.00     0.000 A 
ATOM      4  C4  BNZ d   1       2.852   5.983   5.845  0.00  0.00     0.000 A 
ATOM      5  C5  BNZ d   1       3.630   5.979   4.704  0.00  0.00     0.000 A 
ATOM      6  C6  BNZ d   1       3.032   5.998   3.465  0.00  0.00     0.000 A 
ENDROOT
TORSDOF 0
ENDMDL
