MODEL 1
REMARK minimizedAffinity -2.65553951
REMARK minimizedRMSD -1
REMARK  0 active torsions:
REMARK  status: ('A' for Active; 'I' for Inactive)
ROOT
ATOM      1  C1  BNZ d   1      -1.792  -0.307   1.170  0.00  0.00     0.000 A 
ATOM      2  C2  BNZ d   1      -1.158  -0.645   2.336  0.00  0.00     0.000 A 
ATOM      3  C3  BNZ d   1       0.171  -0.964   2.343  0.00  0.00     0.000 A 
ATOM      4  C4  BNZ d   1       0.855  -0.983   1.181  0.00  0.00     0.000 A 
ATOM      5  C5  BNZ d   1       0.228  -0.653  -0.005  0.00  0.00     0.000 A 
ATOM      6  C6  BNZ d   1      -1.101  -0.295  -0.003  0.00  0.00     0.000 A 
ENDROOT
TORSDOF 0
ENDMDL
