MODEL 1
REMARK minimizedAffinity 1.33098269
REMARK minimizedRMSD -1
REMARK  0 active torsions:
REMARK  status: ('A' for Active; 'I' for Inactive)
ROOT
ATOM      1  C1  BNZ d   1       1.446   5.762   3.604  0.00  0.00     0.000 A 
ATOM      2  C2  BNZ d   1       2.793   5.999   3.663  0.00  0.00     0.000 A 
ATOM      3  C3  BNZ d   1       3.452   6.000   4.860  0.00  0.00     0.000 A 
ATOM      4  C4  BNZ d   1       2.757   5.804   5.999  0.00  0.00     0.000 A 
ATOM      5  C5  BNZ d   1       1.396   5.573   5.957  0.00  0.00     0.000 A 
ATOM      6  C6  BNZ d   1       0.743   5.534   4.746  0.00  0.00     0.000 A 
ENDROOT
TORSDOF 0
ENDMDL
