MODEL 1
REMARK minimizedAffinity -0.398151219
REMARK minimizedRMSD -1
REMARK  0 active torsions:
REMARK  status: ('A' for Active; 'I' for Inactive)
ROOT
ATOM      1  C1  BNZ d   1       2.445   5.995   4.905  0.00  0.00     0.000 A 
ATOM      2  C2  BNZ d   1       3.772   5.990   4.567  0.00  0.00     0.000 A 
ATOM      3  C3  BNZ d   1       4.160   5.997   3.256  0.00  0.00     0.000 A 
ATOM      4  C4  BNZ d   1       3.223   5.970   2.287  0.00  0.00     0.000 A 
ATOM      5  C5  BNZ d   1       1.881   5.967   2.612  0.00  0.00     0.000 A 
ATOM      6  C6  BNZ d   1       1.493   5.998   3.932  0.00  0.00     0.000 A 
ENDROOT
TORSDOF 0
ENDMDL
