MODEL 1
REMARK minimizedAffinity 2.82068729
REMARK minimizedRMSD -1
REMARK  0 active torsions:
REMARK  status: ('A' for Active; 'I' for Inactive)
ROOT
ATOM      1  C1  BNZ d   1       3.872   5.991   4.503  0.00  0.00     0.000 A 
ATOM      2  C2  BNZ d   1       3.109   5.986   3.366  0.00  0.00     0.000 A 
ATOM      3  C3  BNZ d   1       1.744   6.000   3.440  0.00  0.00     0.000 A 
ATOM      4  C4  BNZ d   1       1.144   5.978   4.648  0.00  0.00     0.000 A 
ATOM      5  C5  BNZ d   1       1.900   5.974   5.803  0.00  0.00     0.000 A 
ATOM      6  C6  BNZ d   1       3.274   6.000   5.726  0.00  0.00     0.000 A 
ENDROOT
TORSDOF 0
ENDMDL
