MODEL 1
REMARK minimizedAffinity 2.66292143
REMARK minimizedRMSD -1
REMARK  0 active torsions:
REMARK  status: ('A' for Active; 'I' for Inactive)
ROOT
ATOM      1  C1  BNZ d   1       1.990   5.993   5.584  0.00  0.00     0.000 A 
ATOM      2  C2  BNZ d   1       3.327   5.997   5.290  0.00  0.00     0.000 A 
ATOM      3  C3  BNZ d   1       3.759   6.000   3.993  0.00  0.00     0.000 A 
ATOM      4  C4  BNZ d   1       2.855   5.959   2.994  0.00  0.00     0.000 A 
ATOM      5  C5  BNZ d   1       1.503   5.945   3.274  0.00  0.00     0.000 A 
ATOM      6  C6  BNZ d   1       1.072   5.982   4.580  0.00  0.00     0.000 A 
ENDROOT
TORSDOF 0
ENDMDL
