MODEL 1
REMARK minimizedAffinity -2.90708351
REMARK minimizedRMSD -1
REMARK  0 active torsions:
REMARK  status: ('A' for Active; 'I' for Inactive)
ROOT
ATOM      1  C   UNL d   1       4.882  -2.621   5.379  0.00  0.00     0.172 C 
ATOM      2  N   UNL d   1       5.276  -3.068   4.063  0.00  0.00    -0.070 N 
ATOM      3  C1  UNL d   1       5.261  -4.364   3.623  0.00  0.00    -0.004 A 
ATOM      4  C2  UNL d   1       5.706  -4.372   2.319  0.00  0.00    -0.047 A 
ATOM      5  C3  UNL d   1       5.999  -3.034   1.963  0.00  0.00    -0.047 A 
ATOM      6  C4  UNL d   1       5.723  -2.247   3.061  0.00  0.00    -0.004 A 
ENDROOT
TORSDOF 0
ENDMDL
