MODEL 1
REMARK minimizedAffinity -2.2440114
REMARK minimizedRMSD -1
REMARK  0 active torsions:
REMARK  status: ('A' for Active; 'I' for Inactive)
ROOT
ATOM      1  C   UNL d   1       5.994  -5.485   5.996  0.00  0.00     0.172 C 
ATOM      2  N   UNL d   1       5.889  -4.305   5.171  0.00  0.00    -0.070 N 
ATOM      3  C1  UNL d   1       6.000  -4.273   3.806  0.00  0.00    -0.004 A 
ATOM      4  C2  UNL d   1       5.839  -2.966   3.400  0.00  0.00    -0.047 A 
ATOM      5  C3  UNL d   1       5.625  -2.185   4.561  0.00  0.00    -0.047 A 
ATOM      6  C4  UNL d   1       5.661  -3.040   5.643  0.00  0.00    -0.004 A 
ENDROOT
TORSDOF 0
ENDMDL
