MODEL 1
REMARK minimizedAffinity -2.70265698
REMARK minimizedRMSD -1
REMARK  0 active torsions:
REMARK  status: ('A' for Active; 'I' for Inactive)
ROOT
ATOM      1  C   UNL d   1       4.832  -2.625   5.864  0.00  0.00     0.172 C 
ATOM      2  N   UNL d   1       5.227  -3.259   4.628  0.00  0.00    -0.070 N 
ATOM      3  C1  UNL d   1       5.138  -4.598   4.354  0.00  0.00    -0.004 A 
ATOM      4  C2  UNL d   1       5.612  -4.799   3.075  0.00  0.00    -0.047 A 
ATOM      5  C3  UNL d   1       6.000  -3.538   2.564  0.00  0.00    -0.047 A 
ATOM      6  C4  UNL d   1       5.750  -2.602   3.546  0.00  0.00    -0.004 A 
ENDROOT
TORSDOF 0
ENDMDL
