MODEL 1
REMARK minimizedAffinity -2.82359076
REMARK minimizedRMSD -1
REMARK  0 active torsions:
REMARK  status: ('A' for Active; 'I' for Inactive)
ROOT
ATOM      1  C   UNL d   1       5.999  -5.251   4.640  0.00  0.00     0.172 C 
ATOM      2  N   UNL d   1       5.792  -4.064   3.843  0.00  0.00    -0.070 N 
ATOM      3  C1  UNL d   1       5.703  -2.785   4.324  0.00  0.00    -0.004 A 
ATOM      4  C2  UNL d   1       5.506  -1.943   3.251  0.00  0.00    -0.047 A 
ATOM      5  C3  UNL d   1       5.475  -2.744   2.085  0.00  0.00    -0.047 A 
ATOM      6  C4  UNL d   1       5.655  -4.053   2.480  0.00  0.00    -0.004 A 
ENDROOT
TORSDOF 0
ENDMDL
