MODEL 1
REMARK minimizedAffinity -2.12327313
REMARK minimizedRMSD -1
REMARK  0 active torsions:
REMARK  status: ('A' for Active; 'I' for Inactive)
ROOT
ATOM      1  C   UNL d   1       4.912  -5.609   4.823  0.00  0.00     0.172 C 
ATOM      2  N   UNL d   1       5.352  -4.973   3.603  0.00  0.00    -0.070 N 
ATOM      3  C1  UNL d   1       5.585  -3.633   3.441  0.00  0.00    -0.004 A 
ATOM      4  C2  UNL d   1       5.990  -3.430   2.139  0.00  0.00    -0.047 A 
ATOM      5  C3  UNL d   1       6.000  -4.691   1.497  0.00  0.00    -0.047 A 
ATOM      6  C4  UNL d   1       5.601  -5.628   2.427  0.00  0.00    -0.004 A 
ENDROOT
TORSDOF 0
ENDMDL
