MODEL 1
REMARK minimizedAffinity -2.49127984
REMARK minimizedRMSD -1
REMARK  0 active torsions:
REMARK  status: ('A' for Active; 'I' for Inactive)
ROOT
ATOM      1  C   UNL d   1       5.651  -4.419   5.614  0.00  0.00     0.172 C 
ATOM      2  N   UNL d   1       5.664  -4.049   4.218  0.00  0.00    -0.070 N 
ATOM      3  C1  UNL d   1       5.587  -4.916   3.162  0.00  0.00    -0.004 A 
ATOM      4  C2  UNL d   1       5.629  -4.174   2.002  0.00  0.00    -0.047 A 
ATOM      5  C3  UNL d   1       5.736  -2.813   2.374  0.00  0.00    -0.047 A 
ATOM      6  C4  UNL d   1       5.756  -2.764   3.752  0.00  0.00    -0.004 A 
ENDROOT
TORSDOF 0
ENDMDL
