MODEL 1
REMARK minimizedAffinity -2.42156911
REMARK minimizedRMSD -1
REMARK  0 active torsions:
REMARK  status: ('A' for Active; 'I' for Inactive)
ROOT
ATOM      1  C   UNL d   1       5.623  -5.639   3.369  0.00  0.00     0.172 C 
ATOM      2  N   UNL d   1       5.334  -4.503   4.212  0.00  0.00    -0.070 N 
ATOM      3  C1  UNL d   1       5.347  -3.192   3.816  0.00  0.00    -0.004 A 
ATOM      4  C2  UNL d   1       5.018  -2.419   4.909  0.00  0.00    -0.047 A 
ATOM      5  C3  UNL d   1       4.802  -3.295   5.998  0.00  0.00    -0.047 A 
ATOM      6  C4  UNL d   1       5.004  -4.580   5.539  0.00  0.00    -0.004 A 
ENDROOT
TORSDOF 0
ENDMDL
