MODEL 1
REMARK minimizedAffinity -2.81058717
REMARK minimizedRMSD -1
REMARK  0 active torsions:
REMARK  status: ('A' for Active; 'I' for Inactive)
ROOT
ATOM      1  C   UNL d   1       5.412  -2.606   5.648  0.00  0.00     0.172 C 
ATOM      2  N   UNL d   1       5.559  -3.110   4.302  0.00  0.00    -0.070 N 
ATOM      3  C1  UNL d   1       6.000  -2.391   3.224  0.00  0.00    -0.004 A 
ATOM      4  C2  UNL d   1       5.997  -3.228   2.129  0.00  0.00    -0.047 A 
ATOM      5  C3  UNL d   1       5.537  -4.493   2.564  0.00  0.00    -0.047 A 
ATOM      6  C4  UNL d   1       5.273  -4.392   3.914  0.00  0.00    -0.004 A 
ENDROOT
TORSDOF 0
ENDMDL
