MODEL 1
REMARK minimizedAffinity -2.44834566
REMARK minimizedRMSD -1
REMARK  0 active torsions:
REMARK  status: ('A' for Active; 'I' for Inactive)
ROOT
ATOM      1  C   UNL d   1       5.997  -5.942   3.373  0.00  0.00     0.172 C 
ATOM      2  N   UNL d   1       5.650  -4.665   3.951  0.00  0.00    -0.070 N 
ATOM      3  C1  UNL d   1       4.925  -4.479   5.098  0.00  0.00    -0.004 A 
ATOM      4  C2  UNL d   1       4.812  -3.122   5.310  0.00  0.00    -0.047 A 
ATOM      5  C3  UNL d   1       5.490  -2.470   4.254  0.00  0.00    -0.047 A 
ATOM      6  C4  UNL d   1       6.000  -3.449   3.427  0.00  0.00    -0.004 A 
ENDROOT
TORSDOF 0
ENDMDL
