MODEL 1
REMARK minimizedAffinity -2.70232153
REMARK minimizedRMSD -1
REMARK  0 active torsions:
REMARK  status: ('A' for Active; 'I' for Inactive)
ROOT
ATOM      1  C   UNL d   1       4.913  -2.566   5.678  0.00  0.00     0.172 C 
ATOM      2  N   UNL d   1       5.320  -3.217   4.455  0.00  0.00    -0.070 N 
ATOM      3  C1  UNL d   1       5.542  -2.595   3.256  0.00  0.00    -0.004 A 
ATOM      4  C2  UNL d   1       5.914  -3.559   2.343  0.00  0.00    -0.047 A 
ATOM      5  C3  UNL d   1       5.914  -4.803   3.017  0.00  0.00    -0.047 A 
ATOM      6  C4  UNL d   1       5.543  -4.563   4.323  0.00  0.00    -0.004 A 
ENDROOT
TORSDOF 0
ENDMDL
