MODEL 1
REMARK minimizedAffinity -2.73037481
REMARK minimizedRMSD -1
REMARK  0 active torsions:
REMARK  status: ('A' for Active; 'I' for Inactive)
ROOT
ATOM      1  C   UNL d   1       5.288  -2.614   5.427  0.00  0.00     0.172 C 
ATOM      2  N   UNL d   1       5.492  -3.032   4.060  0.00  0.00    -0.070 N 
ATOM      3  C1  UNL d   1       5.941  -2.236   3.040  0.00  0.00    -0.004 A 
ATOM      4  C2  UNL d   1       5.999  -3.006   1.898  0.00  0.00    -0.047 A 
ATOM      5  C3  UNL d   1       5.570  -4.309   2.243  0.00  0.00    -0.047 A 
ATOM      6  C4  UNL d   1       5.262  -4.298   3.587  0.00  0.00    -0.004 A 
ENDROOT
TORSDOF 0
ENDMDL
