MODEL 1
REMARK minimizedAffinity -2.69949174
REMARK minimizedRMSD -1
REMARK  0 active torsions:
REMARK  status: ('A' for Active; 'I' for Inactive)
ROOT
ATOM      1  C   UNL d   1       5.959  -5.143   2.345  0.00  0.00     0.172 C 
ATOM      2  N   UNL d   1       5.562  -4.242   3.401  0.00  0.00    -0.070 N 
ATOM      3  C1  UNL d   1       5.410  -2.887   3.279  0.00  0.00    -0.004 A 
ATOM      4  C2  UNL d   1       5.023  -2.393   4.506  0.00  0.00    -0.047 A 
ATOM      5  C3  UNL d   1       4.941  -3.490   5.397  0.00  0.00    -0.047 A 
ATOM      6  C4  UNL d   1       5.279  -4.622   4.686  0.00  0.00    -0.004 A 
ENDROOT
TORSDOF 0
ENDMDL
