MODEL 1
REMARK minimizedAffinity -2.3686564
REMARK minimizedRMSD -1
REMARK  0 active torsions:
REMARK  status: ('A' for Active; 'I' for Inactive)
ROOT
ATOM      1  C   UNL d   1       5.287  -4.503   2.645  0.00  0.00     0.172 C 
ATOM      2  N   UNL d   1       5.340  -3.744   3.873  0.00  0.00    -0.070 N 
ATOM      3  C1  UNL d   1       6.000  -2.557   4.050  0.00  0.00    -0.004 A 
ATOM      4  C2  UNL d   1       5.809  -2.159   5.355  0.00  0.00    -0.047 A 
ATOM      5  C3  UNL d   1       5.008  -3.140   5.985  0.00  0.00    -0.047 A 
ATOM      6  C4  UNL d   1       4.732  -4.111   5.044  0.00  0.00    -0.004 A 
ENDROOT
TORSDOF 0
ENDMDL
