MODEL 1
REMARK minimizedAffinity -2.38186741
REMARK minimizedRMSD -1
REMARK  0 active torsions:
REMARK  status: ('A' for Active; 'I' for Inactive)
ROOT
ATOM      1  C   UNL d   1       4.337  -5.289   4.992  0.00  0.00     0.172 C 
ATOM      2  N   UNL d   1       4.923  -4.279   4.143  0.00  0.00    -0.070 N 
ATOM      3  C1  UNL d   1       5.603  -4.511   2.977  0.00  0.00    -0.004 A 
ATOM      4  C2  UNL d   1       5.999  -3.293   2.470  0.00  0.00    -0.047 A 
ATOM      5  C3  UNL d   1       5.543  -2.294   3.362  0.00  0.00    -0.047 A 
ATOM      6  C4  UNL d   1       4.879  -2.932   4.388  0.00  0.00    -0.004 A 
ENDROOT
TORSDOF 0
ENDMDL
