MODEL 1
REMARK minimizedAffinity -2.89911747
REMARK minimizedRMSD -1
REMARK  0 active torsions:
REMARK  status: ('A' for Active; 'I' for Inactive)
ROOT
ATOM      1  C   UNL d   1       5.918  -2.670   5.999  0.00  0.00     0.172 C 
ATOM      2  N   UNL d   1       5.822  -3.118   4.630  0.00  0.00    -0.070 N 
ATOM      3  C1  UNL d   1       5.918  -4.417   4.206  0.00  0.00    -0.004 A 
ATOM      4  C2  UNL d   1       5.773  -4.426   2.836  0.00  0.00    -0.047 A 
ATOM      5  C3  UNL d   1       5.584  -3.086   2.421  0.00  0.00    -0.047 A 
ATOM      6  C4  UNL d   1       5.618  -2.298   3.552  0.00  0.00    -0.004 A 
ENDROOT
TORSDOF 0
ENDMDL
