MODEL 1
REMARK minimizedAffinity -2.19605017
REMARK minimizedRMSD -1
REMARK  0 active torsions:
REMARK  status: ('A' for Active; 'I' for Inactive)
ROOT
ATOM      1  C   UNL d   1       5.892  -3.026   5.034  0.00  0.00     0.172 C 
ATOM      2  N   UNL d   1       5.936  -3.012   3.590  0.00  0.00    -0.070 N 
ATOM      3  C1  UNL d   1       5.961  -4.117   2.782  0.00  0.00    -0.004 A 
ATOM      4  C2  UNL d   1       6.000  -3.682   1.474  0.00  0.00    -0.047 A 
ATOM      5  C3  UNL d   1       5.999  -2.267   1.498  0.00  0.00    -0.047 A 
ATOM      6  C4  UNL d   1       5.959  -1.879   2.821  0.00  0.00    -0.004 A 
ENDROOT
TORSDOF 0
ENDMDL
