MODEL 1
REMARK minimizedAffinity -2.5752492
REMARK minimizedRMSD -1
REMARK  0 active torsions:
REMARK  status: ('A' for Active; 'I' for Inactive)
ROOT
ATOM      1  C   UNL d   1       5.981  -2.155   2.819  0.00  0.00     0.172 C 
ATOM      2  N   UNL d   1       5.388  -2.658   4.036  0.00  0.00    -0.070 N 
ATOM      3  C1  UNL d   1       5.417  -3.959   4.460  0.00  0.00    -0.004 A 
ATOM      4  C2  UNL d   1       4.743  -4.027   5.660  0.00  0.00    -0.047 A 
ATOM      5  C3  UNL d   1       4.292  -2.722   5.967  0.00  0.00    -0.047 A 
ATOM      6  C4  UNL d   1       4.705  -1.893   4.945  0.00  0.00    -0.004 A 
ENDROOT
TORSDOF 0
ENDMDL
