MODEL 1
REMARK minimizedAffinity 11.8467636
REMARK minimizedRMSD -1
REMARK  0 active torsions:
REMARK  status: ('A' for Active; 'I' for Inactive)
ROOT
ATOM      1  C   UNL d   1      -3.213   4.582  -3.545  0.00  0.00     0.023 A 
ATOM      2  C1  UNL d   1      -3.254   3.213  -3.283  0.00  0.00     0.003 A 
ATOM      3  C2  UNL d   1      -2.385   2.654  -2.343  0.00  0.00     0.048 A 
ATOM      4  C3  UNL d   1      -1.480   3.471  -1.667  0.00  0.00     0.023 A 
ATOM      5  C4  UNL d   1      -1.436   4.842  -1.926  0.00  0.00     0.048 A 
ATOM      6  C5  UNL d   1      -2.305   5.396  -2.867  0.00  0.00     0.003 A 
ATOM      7  I   UNL d   1      -0.186   2.642  -0.268  0.00  0.00    -0.146 I 
ENDROOT
TORSDOF 0
ENDMDL
