MODEL 1
REMARK minimizedAffinity 3.63162041
REMARK minimizedRMSD -1
REMARK  0 active torsions:
REMARK  status: ('A' for Active; 'I' for Inactive)
ROOT
ATOM      1  C   UNL d   1      -4.449  -0.073   2.520  0.00  0.00     0.023 A 
ATOM      2  C1  UNL d   1      -3.793  -1.300   2.621  0.00  0.00     0.003 A 
ATOM      3  C2  UNL d   1      -4.237  -2.257   3.536  0.00  0.00     0.048 A 
ATOM      4  C3  UNL d   1      -5.338  -1.981   4.347  0.00  0.00     0.023 A 
ATOM      5  C4  UNL d   1      -5.998  -0.755   4.248  0.00  0.00     0.048 A 
ATOM      6  C5  UNL d   1      -5.550   0.199   3.332  0.00  0.00     0.003 A 
ATOM      7  I   UNL d   1      -6.000  -3.404   5.709  0.00  0.00    -0.146 I 
ENDROOT
TORSDOF 0
ENDMDL
