MODEL 1
REMARK minimizedAffinity 0.619768202
REMARK minimizedRMSD -1
REMARK  0 active torsions:
REMARK  status: ('A' for Active; 'I' for Inactive)
ROOT
ATOM      1  C   UNL d   1      -0.352  -3.869  -5.952  0.00  0.00     0.023 A 
ATOM      2  C1  UNL d   1      -0.461  -5.260  -5.964  0.00  0.00     0.003 A 
ATOM      3  C2  UNL d   1      -1.720  -5.863  -5.977  0.00  0.00     0.048 A 
ATOM      4  C3  UNL d   1      -2.867  -5.070  -5.979  0.00  0.00     0.023 A 
ATOM      5  C4  UNL d   1      -2.763  -3.678  -5.968  0.00  0.00     0.048 A 
ATOM      6  C5  UNL d   1      -1.501  -3.079  -5.954  0.00  0.00     0.003 A 
ATOM      7  I   UNL d   1      -4.742  -5.965  -5.999  0.00  0.00    -0.146 I 
ENDROOT
TORSDOF 0
ENDMDL
