MODEL 1
REMARK minimizedAffinity 3.44029403
REMARK minimizedRMSD -1
REMARK  0 active torsions:
REMARK  status: ('A' for Active; 'I' for Inactive)
ROOT
ATOM      1  C   UNL d   1      -2.315   4.682  -1.790  0.00  0.00     0.023 A 
ATOM      2  C1  UNL d   1      -2.617   4.280  -3.091  0.00  0.00     0.003 A 
ATOM      3  C2  UNL d   1      -1.785   4.653  -4.150  0.00  0.00     0.048 A 
ATOM      4  C3  UNL d   1      -0.653   5.427  -3.899  0.00  0.00     0.023 A 
ATOM      5  C4  UNL d   1      -0.346   5.831  -2.599  0.00  0.00     0.048 A 
ATOM      6  C5  UNL d   1      -1.181   5.456  -1.544  0.00  0.00     0.003 A 
ATOM      7  I   UNL d   1       0.586   5.983  -5.472  0.00  0.00    -0.146 I 
ENDROOT
TORSDOF 0
ENDMDL
