MODEL 1
REMARK minimizedAffinity 10.8878307
REMARK minimizedRMSD -1
REMARK  0 active torsions:
REMARK  status: ('A' for Active; 'I' for Inactive)
ROOT
ATOM      1  C   UNL d   1      -1.240   4.998  -2.464  0.00  0.00     0.023 A 
ATOM      2  C1  UNL d   1      -0.694   3.762  -2.811  0.00  0.00     0.003 A 
ATOM      3  C2  UNL d   1      -0.139   2.942  -1.826  0.00  0.00     0.048 A 
ATOM      4  C3  UNL d   1      -0.134   3.363  -0.497  0.00  0.00     0.023 A 
ATOM      5  C4  UNL d   1      -0.680   4.599  -0.146  0.00  0.00     0.048 A 
ATOM      6  C5  UNL d   1      -1.233   5.416  -1.133  0.00  0.00     0.003 A 
ATOM      7  I   UNL d   1       0.692   2.144   0.970  0.00  0.00    -0.146 I 
ENDROOT
TORSDOF 0
ENDMDL
