MODEL 1
REMARK minimizedAffinity 3.74530053
REMARK minimizedRMSD -1
REMARK  0 active torsions:
REMARK  status: ('A' for Active; 'I' for Inactive)
ROOT
ATOM      1  C   UNL d   1      -4.845  -5.995  -5.878  0.00  0.00     0.023 A 
ATOM      2  C1  UNL d   1      -3.460  -5.836  -5.825  0.00  0.00     0.003 A 
ATOM      3  C2  UNL d   1      -2.901  -4.557  -5.860  0.00  0.00     0.048 A 
ATOM      4  C3  UNL d   1      -3.733  -3.441  -5.947  0.00  0.00     0.023 A 
ATOM      5  C4  UNL d   1      -5.119  -3.595  -6.000  0.00  0.00     0.048 A 
ATOM      6  C5  UNL d   1      -5.673  -4.876  -5.965  0.00  0.00     0.003 A 
ATOM      7  I   UNL d   1      -2.903  -1.536  -6.000  0.00  0.00    -0.146 I 
ENDROOT
TORSDOF 0
ENDMDL
