MODEL 1
REMARK minimizedAffinity 9.43145275
REMARK minimizedRMSD -1
REMARK  0 active torsions:
REMARK  status: ('A' for Active; 'I' for Inactive)
ROOT
ATOM      1  C   UNL d   1       0.027   4.949  -0.500  0.00  0.00     0.023 A 
ATOM      2  C1  UNL d   1      -0.893   5.828  -1.072  0.00  0.00     0.003 A 
ATOM      3  C2  UNL d   1      -1.645   5.431  -2.179  0.00  0.00     0.048 A 
ATOM      4  C3  UNL d   1      -1.473   4.152  -2.709  0.00  0.00     0.023 A 
ATOM      5  C4  UNL d   1      -0.554   3.269  -2.140  0.00  0.00     0.048 A 
ATOM      6  C5  UNL d   1       0.196   3.671  -1.034  0.00  0.00     0.003 A 
ATOM      7  I   UNL d   1      -2.592   3.559  -4.357  0.00  0.00    -0.146 I 
ENDROOT
TORSDOF 0
ENDMDL
