MODEL 1
REMARK minimizedAffinity -2.44827867
REMARK minimizedRMSD -1
REMARK  0 active torsions:
REMARK  status: ('A' for Active; 'I' for Inactive)
ROOT
ATOM      1  C   UNL d   1      -1.264  -3.975  -5.886  0.00  0.00     0.023 A 
ATOM      2  C1  UNL d   1      -1.397  -5.359  -5.770  0.00  0.00     0.003 A 
ATOM      3  C2  UNL d   1      -2.666  -5.941  -5.767  0.00  0.00     0.048 A 
ATOM      4  C3  UNL d   1      -3.798  -5.134  -5.882  0.00  0.00     0.023 A 
ATOM      5  C4  UNL d   1      -3.669  -3.749  -5.999  0.00  0.00     0.048 A 
ATOM      6  C5  UNL d   1      -2.398  -3.171  -6.000  0.00  0.00     0.003 A 
ATOM      7  I   UNL d   1      -5.688  -5.999  -5.878  0.00  0.00    -0.146 I 
ENDROOT
TORSDOF 0
ENDMDL
