MODEL 1
REMARK minimizedAffinity -2.16327524
REMARK minimizedRMSD -1
REMARK  0 active torsions:
REMARK  status: ('A' for Active; 'I' for Inactive)
ROOT
ATOM      1  C   UNL d   1       1.056   2.233   0.776  0.00  0.00     0.077 C 
ATOM      2  C1  UNL d   1      -0.233   1.944   1.486  0.00  0.00    -0.074 A 
ATOM      3  C2  UNL d   1      -1.114   2.976   1.825  0.00  0.00    -0.005 A 
ATOM      4  C3  UNL d   1      -2.314   2.691   2.477  0.00  0.00     0.006 A 
ATOM      5  C4  UNL d   1      -2.644   1.373   2.796  0.00  0.00    -0.005 A 
ATOM      6  C5  UNL d   1      -1.776   0.328   2.464  0.00  0.00    -0.074 A 
ATOM      7  C6  UNL d   1      -2.120  -1.095   2.790  0.00  0.00     0.077 C 
ATOM      8  C7  UNL d   1      -0.576   0.622   1.802  0.00  0.00    -0.001 A 
ENDROOT
TORSDOF 0
ENDMDL
