MODEL 1
REMARK minimizedAffinity 5.02304411
REMARK minimizedRMSD -1
REMARK  0 active torsions:
REMARK  status: ('A' for Active; 'I' for Inactive)
ROOT
ATOM      1  C   UNL d   1      -0.420  -0.988   1.957  0.00  0.00     0.077 C 
ATOM      2  C1  UNL d   1      -0.976   0.404   2.003  0.00  0.00    -0.074 A 
ATOM      3  C2  UNL d   1      -0.671   1.334   1.004  0.00  0.00    -0.005 A 
ATOM      4  C3  UNL d   1      -1.203   2.622   1.056  0.00  0.00     0.006 A 
ATOM      5  C4  UNL d   1      -2.045   2.992   2.105  0.00  0.00    -0.005 A 
ATOM      6  C5  UNL d   1      -2.362   2.076   3.113  0.00  0.00    -0.074 A 
ATOM      7  C6  UNL d   1      -3.273   2.455   4.242  0.00  0.00     0.077 C 
ATOM      8  C7  UNL d   1      -1.829   0.781   3.050  0.00  0.00    -0.001 A 
ENDROOT
TORSDOF 0
ENDMDL
