MODEL 1
REMARK minimizedAffinity 2.82014942
REMARK minimizedRMSD -1
REMARK  0 active torsions:
REMARK  status: ('A' for Active; 'I' for Inactive)
ROOT
ATOM      1  C   UNL d   1      -3.009   2.403   3.466  0.00  0.00     0.077 C 
ATOM      2  C1  UNL d   1      -1.875   2.088   2.536  0.00  0.00    -0.074 A 
ATOM      3  C2  UNL d   1      -1.166   3.108   1.894  0.00  0.00    -0.005 A 
ATOM      4  C3  UNL d   1      -0.108   2.800   1.040  0.00  0.00     0.006 A 
ATOM      5  C4  UNL d   1       0.252   1.470   0.818  0.00  0.00    -0.005 A 
ATOM      6  C5  UNL d   1      -0.445   0.436   1.452  0.00  0.00    -0.074 A 
ATOM      7  C6  UNL d   1      -0.065  -0.998   1.232  0.00  0.00     0.077 C 
ATOM      8  C7  UNL d   1      -1.503   0.754   2.314  0.00  0.00    -0.001 A 
ENDROOT
TORSDOF 0
ENDMDL
