MODEL 1
REMARK minimizedAffinity 6.52523136
REMARK minimizedRMSD -1
REMARK  0 active torsions:
REMARK  status: ('A' for Active; 'I' for Inactive)
ROOT
ATOM      1  C   UNL d   1      -5.305   5.773   5.011  0.00  0.00     0.077 C 
ATOM      2  C1  UNL d   1      -5.276   4.274   5.036  0.00  0.00    -0.074 A 
ATOM      3  C2  UNL d   1      -6.000   3.557   5.995  0.00  0.00    -0.005 A 
ATOM      4  C3  UNL d   1      -5.971   2.163   6.000  0.00  0.00     0.006 A 
ATOM      5  C4  UNL d   1      -5.219   1.472   5.049  0.00  0.00    -0.005 A 
ATOM      6  C5  UNL d   1      -4.489   2.172   4.083  0.00  0.00    -0.074 A 
ATOM      7  C6  UNL d   1      -3.683   1.445   3.047  0.00  0.00     0.077 C 
ATOM      8  C7  UNL d   1      -4.529   3.573   4.080  0.00  0.00    -0.001 A 
ENDROOT
TORSDOF 0
ENDMDL
