MODEL 1
REMARK minimizedAffinity 3.44583464
REMARK minimizedRMSD -1
REMARK  0 active torsions:
REMARK  status: ('A' for Active; 'I' for Inactive)
ROOT
ATOM      1  C   UNL d   1       0.867  -0.317   2.233  0.00  0.00     0.077 C 
ATOM      2  C1  UNL d   1      -0.343   0.569   2.242  0.00  0.00    -0.074 A 
ATOM      3  C2  UNL d   1      -0.327   1.813   1.602  0.00  0.00    -0.005 A 
ATOM      4  C3  UNL d   1      -1.463   2.622   1.611  0.00  0.00     0.006 A 
ATOM      5  C4  UNL d   1      -2.624   2.197   2.258  0.00  0.00    -0.005 A 
ATOM      6  C5  UNL d   1      -2.659   0.956   2.902  0.00  0.00    -0.074 A 
ATOM      7  C6  UNL d   1      -3.901   0.480   3.593  0.00  0.00     0.077 C 
ATOM      8  C7  UNL d   1      -1.515   0.145   2.883  0.00  0.00    -0.001 A 
ENDROOT
TORSDOF 0
ENDMDL
