MODEL 1
REMARK minimizedAffinity 7.81568146
REMARK minimizedRMSD -1
REMARK  0 active torsions:
REMARK  status: ('A' for Active; 'I' for Inactive)
ROOT
ATOM      1  C   UNL d   1      -5.596   2.547   4.966  0.00  0.00     0.077 C 
ATOM      2  C1  UNL d   1      -4.549   1.871   4.132  0.00  0.00    -0.074 A 
ATOM      3  C2  UNL d   1      -4.409   0.479   4.143  0.00  0.00    -0.005 A 
ATOM      4  C3  UNL d   1      -3.437  -0.136   3.354  0.00  0.00     0.006 A 
ATOM      5  C4  UNL d   1      -2.597   0.633   2.548  0.00  0.00    -0.005 A 
ATOM      6  C5  UNL d   1      -2.723   2.025   2.523  0.00  0.00    -0.074 A 
ATOM      7  C6  UNL d   1      -1.834   2.866   1.655  0.00  0.00     0.077 C 
ATOM      8  C7  UNL d   1      -3.707   2.636   3.313  0.00  0.00    -0.001 A 
ENDROOT
TORSDOF 0
ENDMDL
