MODEL 1
REMARK minimizedAffinity -4.91208506
REMARK minimizedRMSD -1
REMARK  0 active torsions:
REMARK  status: ('A' for Active; 'I' for Inactive)
ROOT
ATOM      1  C   UNL d   1      -2.655  -0.074   3.039  0.00  0.00     0.077 C 
ATOM      2  C1  UNL d   1      -1.793   0.946   2.355  0.00  0.00    -0.074 A 
ATOM      3  C2  UNL d   1      -0.441   0.690   2.101  0.00  0.00    -0.005 A 
ATOM      4  C3  UNL d   1       0.346   1.644   1.456  0.00  0.00     0.006 A 
ATOM      5  C4  UNL d   1      -0.210   2.860   1.057  0.00  0.00    -0.005 A 
ATOM      6  C5  UNL d   1      -1.560   3.133   1.301  0.00  0.00    -0.074 A 
ATOM      7  C6  UNL d   1      -2.175   4.432   0.871  0.00  0.00     0.077 C 
ATOM      8  C7  UNL d   1      -2.345   2.167   1.944  0.00  0.00    -0.001 A 
ENDROOT
TORSDOF 0
ENDMDL
