MODEL 1
REMARK minimizedAffinity -2.82408857
REMARK minimizedRMSD -1
REMARK  0 active torsions:
REMARK  status: ('A' for Active; 'I' for Inactive)
ROOT
ATOM      1  C   UNL d   1      -3.215   2.157   3.472  0.00  0.00     0.077 C 
ATOM      2  C1  UNL d   1      -2.187   1.352   2.734  0.00  0.00    -0.074 A 
ATOM      3  C2  UNL d   1      -2.386  -0.009   2.481  0.00  0.00    -0.005 A 
ATOM      4  C3  UNL d   1      -1.425  -0.743   1.785  0.00  0.00     0.006 A 
ATOM      5  C4  UNL d   1      -0.257  -0.124   1.337  0.00  0.00    -0.005 A 
ATOM      6  C5  UNL d   1      -0.042   1.236   1.580  0.00  0.00    -0.074 A 
ATOM      7  C6  UNL d   1       1.203   1.919   1.096  0.00  0.00     0.077 C 
ATOM      8  C7  UNL d   1      -1.015   1.968   2.274  0.00  0.00    -0.001 A 
ENDROOT
TORSDOF 0
ENDMDL
