MODEL 1
REMARK minimizedAffinity -1.29468191
REMARK minimizedRMSD -1
REMARK  0 active torsions:
REMARK  status: ('A' for Active; 'I' for Inactive)
ROOT
ATOM      1  C   UNL d   1       1.889   2.228   0.880  0.00  0.00     0.077 C 
ATOM      2  C1  UNL d   1       0.615   1.489   1.165  0.00  0.00    -0.074 A 
ATOM      3  C2  UNL d   1       0.420   0.186   0.695  0.00  0.00    -0.005 A 
ATOM      4  C3  UNL d   1      -0.766  -0.493   0.977  0.00  0.00     0.006 A 
ATOM      5  C4  UNL d   1      -1.767   0.124   1.729  0.00  0.00    -0.005 A 
ATOM      6  C5  UNL d   1      -1.589   1.426   2.208  0.00  0.00    -0.074 A 
ATOM      7  C6  UNL d   1      -2.650   2.099   3.026  0.00  0.00     0.077 C 
ATOM      8  C7  UNL d   1      -0.392   2.098   1.927  0.00  0.00    -0.001 A 
ENDROOT
TORSDOF 0
ENDMDL
