MODEL 1
REMARK minimizedAffinity 1.6597544
REMARK minimizedRMSD -1
REMARK  0 active torsions:
REMARK  status: ('A' for Active; 'I' for Inactive)
ROOT
ATOM      1  C   UNL d   1      -2.726   2.241   2.281  0.00  0.00     0.077 C 
ATOM      2  C1  UNL d   1      -1.540   1.473   1.779  0.00  0.00    -0.074 A 
ATOM      3  C2  UNL d   1      -1.618   0.094   1.556  0.00  0.00    -0.005 A 
ATOM      4  C3  UNL d   1      -0.509  -0.605   1.080  0.00  0.00     0.006 A 
ATOM      5  C4  UNL d   1       0.687   0.066   0.822  0.00  0.00    -0.005 A 
ATOM      6  C5  UNL d   1       0.784   1.444   1.038  0.00  0.00    -0.074 A 
ATOM      7  C6  UNL d   1       2.059   2.182   0.756  0.00  0.00     0.077 C 
ATOM      8  C7  UNL d   1      -0.337   2.141   1.509  0.00  0.00    -0.001 A 
ENDROOT
TORSDOF 0
ENDMDL
