MODEL 1
REMARK minimizedAffinity 4.17011309
REMARK minimizedRMSD -1
REMARK  0 active torsions:
REMARK  status: ('A' for Active; 'I' for Inactive)
ROOT
ATOM      1  C   UNL d   1      -4.309   1.230  -1.953  0.00  0.00     0.077 C 
ATOM      2  C1  UNL d   1      -4.109  -0.240  -2.175  0.00  0.00    -0.074 A 
ATOM      3  C2  UNL d   1      -4.395  -1.165  -1.166  0.00  0.00    -0.005 A 
ATOM      4  C3  UNL d   1      -4.213  -2.529  -1.391  0.00  0.00     0.006 A 
ATOM      5  C4  UNL d   1      -3.744  -2.982  -2.625  0.00  0.00    -0.005 A 
ATOM      6  C5  UNL d   1      -3.453  -2.072  -3.646  0.00  0.00    -0.074 A 
ATOM      7  C6  UNL d   1      -2.957  -2.542  -4.981  0.00  0.00     0.077 C 
ATOM      8  C7  UNL d   1      -3.645  -0.703  -3.415  0.00  0.00    -0.001 A 
ENDROOT
TORSDOF 0
ENDMDL
