MODEL 1
REMARK minimizedAffinity -3.03556347
REMARK minimizedRMSD -1
REMARK  0 active torsions:
REMARK  status: ('A' for Active; 'I' for Inactive)
ROOT
ATOM      1  C   UNL d   1       0.508   2.047   1.325  0.00  0.00     0.077 C 
ATOM      2  C1  UNL d   1      -0.629   1.237   1.875  0.00  0.00    -0.074 A 
ATOM      3  C2  UNL d   1      -0.671  -0.150   1.705  0.00  0.00    -0.005 A 
ATOM      4  C3  UNL d   1      -1.729  -0.891   2.230  0.00  0.00     0.006 A 
ATOM      5  C4  UNL d   1      -2.755  -0.254   2.929  0.00  0.00    -0.005 A 
ATOM      6  C5  UNL d   1      -2.729   1.133   3.109  0.00  0.00    -0.074 A 
ATOM      7  C6  UNL d   1      -3.819   1.833   3.867  0.00  0.00     0.077 C 
ATOM      8  C7  UNL d   1      -1.659   1.870   2.585  0.00  0.00    -0.001 A 
ENDROOT
TORSDOF 0
ENDMDL
