MODEL 1
REMARK minimizedAffinity -0.309110165
REMARK minimizedRMSD -1
REMARK  0 active torsions:
REMARK  status: ('A' for Active; 'I' for Inactive)
ROOT
ATOM      1  C   UNL d   1       1.526  -0.024   0.962  0.00  0.00     0.077 C 
ATOM      2  C1  UNL d   1       0.280   0.675   1.417  0.00  0.00    -0.074 A 
ATOM      3  C2  UNL d   1       0.234   2.070   1.517  0.00  0.00    -0.005 A 
ATOM      4  C3  UNL d   1      -0.935   2.707   1.932  0.00  0.00     0.006 A 
ATOM      5  C4  UNL d   1      -2.069   1.958   2.250  0.00  0.00    -0.005 A 
ATOM      6  C5  UNL d   1      -2.042   0.563   2.155  0.00  0.00    -0.074 A 
ATOM      7  C6  UNL d   1      -3.254  -0.257   2.484  0.00  0.00     0.077 C 
ATOM      8  C7  UNL d   1      -0.866  -0.070   1.731  0.00  0.00    -0.001 A 
ENDROOT
TORSDOF 0
ENDMDL
