MODEL 1
REMARK minimizedAffinity 4.39527178
REMARK minimizedRMSD -1
REMARK  0 active torsions:
REMARK  status: ('A' for Active; 'I' for Inactive)
ROOT
ATOM      1  C   UNL d   1       2.149   2.736   0.331  0.00  0.00     0.077 C 
ATOM      2  C1  UNL d   1       1.059   1.874   0.896  0.00  0.00    -0.074 A 
ATOM      3  C2  UNL d   1       1.250   0.500   1.075  0.00  0.00    -0.005 A 
ATOM      4  C3  UNL d   1       0.231  -0.288   1.610  0.00  0.00     0.006 A 
ATOM      5  C4  UNL d   1      -0.987   0.289   1.972  0.00  0.00    -0.005 A 
ATOM      6  C5  UNL d   1      -1.196   1.661   1.801  0.00  0.00    -0.074 A 
ATOM      7  C6  UNL d   1      -2.495   2.299   2.193  0.00  0.00     0.077 C 
ATOM      8  C7  UNL d   1      -0.164   2.447   1.269  0.00  0.00    -0.001 A 
ENDROOT
TORSDOF 0
ENDMDL
