MODEL 1
REMARK minimizedAffinity 5.24774218
REMARK minimizedRMSD -1
REMARK  0 active torsions:
REMARK  status: ('A' for Active; 'I' for Inactive)
ROOT
ATOM      1  C   UNL d   1       1.796   1.728   0.818  0.00  0.00     0.077 C 
ATOM      2  C1  UNL d   1       0.498   1.186   1.336  0.00  0.00    -0.074 A 
ATOM      3  C2  UNL d   1       0.333  -0.183   1.570  0.00  0.00    -0.005 A 
ATOM      4  C3  UNL d   1      -0.877  -0.672   2.062  0.00  0.00     0.006 A 
ATOM      5  C4  UNL d   1      -1.933   0.201   2.324  0.00  0.00    -0.005 A 
ATOM      6  C5  UNL d   1      -1.787   1.573   2.097  0.00  0.00    -0.074 A 
ATOM      7  C6  UNL d   1      -2.909   2.527   2.383  0.00  0.00     0.077 C 
ATOM      8  C7  UNL d   1      -0.566   2.058   1.610  0.00  0.00    -0.001 A 
ENDROOT
TORSDOF 0
ENDMDL
