MODEL 1
REMARK minimizedAffinity 6.33757162
REMARK minimizedRMSD -1
REMARK  0 active torsions:
REMARK  status: ('A' for Active; 'I' for Inactive)
ROOT
ATOM      1  C   UNL d   1      -0.812   2.983   1.277  0.00  0.00     0.077 C 
ATOM      2  C1  UNL d   1      -0.381   1.622   1.738  0.00  0.00    -0.074 A 
ATOM      3  C2  UNL d   1       0.969   1.257   1.739  0.00  0.00    -0.005 A 
ATOM      4  C3  UNL d   1       1.355  -0.008   2.180  0.00  0.00     0.006 A 
ATOM      5  C4  UNL d   1       0.397  -0.920   2.624  0.00  0.00    -0.005 A 
ATOM      6  C5  UNL d   1      -0.958  -0.573   2.631  0.00  0.00    -0.074 A 
ATOM      7  C6  UNL d   1      -2.000  -1.537   3.115  0.00  0.00     0.077 C 
ATOM      8  C7  UNL d   1      -1.337   0.704   2.193  0.00  0.00    -0.001 A 
ENDROOT
TORSDOF 0
ENDMDL
