MODEL 1
REMARK minimizedAffinity 0.739991486
REMARK minimizedRMSD -1
REMARK  0 active torsions:
REMARK  status: ('A' for Active; 'I' for Inactive)
ROOT
ATOM      1  C   UNL d   1      -2.190  -1.025   1.157  0.00  0.00     0.077 C 
ATOM      2  C1  UNL d   1      -1.047  -0.057   1.231  0.00  0.00    -0.074 A 
ATOM      3  C2  UNL d   1      -1.274   1.322   1.265  0.00  0.00    -0.005 A 
ATOM      4  C3  UNL d   1      -0.202   2.210   1.344  0.00  0.00     0.006 A 
ATOM      5  C4  UNL d   1       1.107   1.728   1.388  0.00  0.00    -0.005 A 
ATOM      6  C5  UNL d   1       1.354   0.352   1.356  0.00  0.00    -0.074 A 
ATOM      7  C6  UNL d   1       2.754  -0.183   1.413  0.00  0.00     0.077 C 
ATOM      8  C7  UNL d   1       0.270  -0.534   1.284  0.00  0.00    -0.001 A 
ENDROOT
TORSDOF 0
ENDMDL
