MODEL 1
REMARK minimizedAffinity -2.79500246
REMARK minimizedRMSD -1
REMARK  0 active torsions:
REMARK  status: ('A' for Active; 'I' for Inactive)
ROOT
ATOM      1  C   UNL d   1      -3.803   1.378   2.606  0.00  0.00     0.077 C 
ATOM      2  C1  UNL d   1      -2.430   0.847   2.319  0.00  0.00    -0.074 A 
ATOM      3  C2  UNL d   1      -2.179  -0.529   2.310  0.00  0.00    -0.005 A 
ATOM      4  C3  UNL d   1      -0.899  -1.009   2.032  0.00  0.00     0.006 A 
ATOM      5  C4  UNL d   1       0.141  -0.119   1.761  0.00  0.00    -0.005 A 
ATOM      6  C5  UNL d   1      -0.091   1.260   1.766  0.00  0.00    -0.074 A 
ATOM      7  C6  UNL d   1       1.014   2.230   1.467  0.00  0.00     0.077 C 
ATOM      8  C7  UNL d   1      -1.381   1.734   2.039  0.00  0.00    -0.001 A 
ENDROOT
TORSDOF 0
ENDMDL
