MODEL 1
REMARK minimizedAffinity 0.508878708
REMARK minimizedRMSD -1
REMARK  0 active torsions:
REMARK  status: ('A' for Active; 'I' for Inactive)
ROOT
ATOM      1  C   UNL d   1      -3.530   1.294   4.149  0.00  0.00     0.077 C 
ATOM      2  C1  UNL d   1      -2.516   1.927   3.243  0.00  0.00    -0.074 A 
ATOM      3  C2  UNL d   1      -1.159   1.609   3.349  0.00  0.00    -0.005 A 
ATOM      4  C3  UNL d   1      -0.229   2.198   2.493  0.00  0.00     0.006 A 
ATOM      5  C4  UNL d   1      -0.647   3.111   1.523  0.00  0.00    -0.005 A 
ATOM      6  C5  UNL d   1      -2.000   3.441   1.401  0.00  0.00    -0.074 A 
ATOM      7  C6  UNL d   1      -2.467   4.412   0.358  0.00  0.00     0.077 C 
ATOM      8  C7  UNL d   1      -2.929   2.839   2.261  0.00  0.00    -0.001 A 
ENDROOT
TORSDOF 0
ENDMDL
