MODEL 1
REMARK minimizedAffinity -2.17260456
REMARK minimizedRMSD -1
REMARK  0 active torsions:
REMARK  status: ('A' for Active; 'I' for Inactive)
ROOT
ATOM      1  C   UNL d   1       5.982  -2.117   3.500  0.00  0.00     0.020 A 
ATOM      2  C1  UNL d   1       5.937  -2.116   4.893  0.00  0.00     0.020 A 
ATOM      3  C2  UNL d   1       5.892  -3.324   5.592  0.00  0.00     0.034 A 
ATOM      4  C3  UNL d   1       5.893  -4.539   4.897  0.00  0.00     0.017 A 
ATOM      5  C4  UNL d   1       5.938  -4.540   3.498  0.00  0.00     0.017 A 
ATOM      6  C5  UNL d   1       5.983  -3.327   2.804  0.00  0.00     0.034 A 
ATOM      7 Cl   UNL d   1       5.942  -5.999   2.571  0.00  0.00    -0.070 Cl
ATOM      8 Cl1  UNL d   1       5.837  -5.996   5.825  0.00  0.00    -0.070 Cl
ENDROOT
TORSDOF 0
ENDMDL
