MODEL 1
REMARK minimizedAffinity 9.82692051
REMARK minimizedRMSD -1
REMARK  0 active torsions:
REMARK  status: ('A' for Active; 'I' for Inactive)
ROOT
ATOM      1  C   UNL d   1       2.211   3.480   0.553  0.00  0.00     0.020 A 
ATOM      2  C1  UNL d   1       2.462   4.496   1.475  0.00  0.00     0.020 A 
ATOM      3  C2  UNL d   1       1.407   5.071   2.185  0.00  0.00     0.034 A 
ATOM      4  C3  UNL d   1       0.095   4.632   1.976  0.00  0.00     0.017 A 
ATOM      5  C4  UNL d   1      -0.157   3.612   1.050  0.00  0.00     0.017 A 
ATOM      6  C5  UNL d   1       0.904   3.039   0.342  0.00  0.00     0.034 A 
ATOM      7 Cl   UNL d   1      -1.749   3.017   0.738  0.00  0.00    -0.070 Cl
ATOM      8 Cl1  UNL d   1      -1.162   5.388   2.889  0.00  0.00    -0.070 Cl
ENDROOT
TORSDOF 0
ENDMDL
