MODEL 1
REMARK minimizedAffinity -1.70517182
REMARK minimizedRMSD -1
REMARK  0 active torsions:
REMARK  status: ('A' for Active; 'I' for Inactive)
ROOT
ATOM      1  C   UNL d   1       2.112  -5.248   6.000  0.00  0.00     0.020 A 
ATOM      2  C1  UNL d   1       2.045  -3.855   5.982  0.00  0.00     0.020 A 
ATOM      3  C2  UNL d   1       3.210  -3.103   5.814  0.00  0.00     0.034 A 
ATOM      4  C3  UNL d   1       4.445  -3.742   5.663  0.00  0.00     0.017 A 
ATOM      5  C4  UNL d   1       4.512  -5.140   5.681  0.00  0.00     0.017 A 
ATOM      6  C5  UNL d   1       3.343  -5.889   5.850  0.00  0.00     0.034 A 
ATOM      7 Cl   UNL d   1       6.000  -6.000   5.501  0.00  0.00    -0.070 Cl
ATOM      8 Cl1  UNL d   1       5.844  -2.748   5.459  0.00  0.00    -0.070 Cl
ENDROOT
TORSDOF 0
ENDMDL
