MODEL 1
REMARK minimizedAffinity -3.29390454
REMARK minimizedRMSD -1
REMARK  0 active torsions:
REMARK  status: ('A' for Active; 'I' for Inactive)
ROOT
ATOM      1  C   UNL d   1       6.000  -4.883   1.960  0.00  0.00     0.020 A 
ATOM      2  C1  UNL d   1       5.611  -3.547   1.867  0.00  0.00     0.020 A 
ATOM      3  C2  UNL d   1       5.218  -2.852   3.013  0.00  0.00     0.034 A 
ATOM      4  C3  UNL d   1       5.212  -3.493   4.257  0.00  0.00     0.017 A 
ATOM      5  C4  UNL d   1       5.603  -4.834   4.350  0.00  0.00     0.017 A 
ATOM      6  C5  UNL d   1       5.996  -5.525   3.199  0.00  0.00     0.034 A 
ATOM      7 Cl   UNL d   1       5.622  -5.692   5.850  0.00  0.00    -0.070 Cl
ATOM      8 Cl1  UNL d   1       4.715  -2.573   5.632  0.00  0.00    -0.070 Cl
ENDROOT
TORSDOF 0
ENDMDL
