MODEL 1
REMARK minimizedAffinity -3.48631692
REMARK minimizedRMSD -1
REMARK  0 active torsions:
REMARK  status: ('A' for Active; 'I' for Inactive)
ROOT
ATOM      1  C   UNL d   1       4.881  -4.365   5.587  0.00  0.00     0.020 A 
ATOM      2  C1  UNL d   1       4.883  -2.987   5.379  0.00  0.00     0.020 A 
ATOM      3  C2  UNL d   1       5.231  -2.469   4.130  0.00  0.00     0.034 A 
ATOM      4  C3  UNL d   1       5.580  -3.330   3.083  0.00  0.00     0.017 A 
ATOM      5  C4  UNL d   1       5.578  -4.714   3.292  0.00  0.00     0.017 A 
ATOM      6  C5  UNL d   1       5.228  -5.227   4.545  0.00  0.00     0.034 A 
ATOM      7 Cl   UNL d   1       5.996  -5.840   2.049  0.00  0.00    -0.070 Cl
ATOM      8 Cl1  UNL d   1       6.000  -2.620   1.565  0.00  0.00    -0.070 Cl
ENDROOT
TORSDOF 0
ENDMDL
