MODEL 1
REMARK minimizedAffinity 0.893455625
REMARK minimizedRMSD -1
REMARK  0 active torsions:
REMARK  status: ('A' for Active; 'I' for Inactive)
ROOT
ATOM      1  C   UNL d   1       5.977  -2.189   4.944  0.00  0.00     0.020 A 
ATOM      2  C1  UNL d   1       5.227  -2.710   5.997  0.00  0.00     0.020 A 
ATOM      3  C2  UNL d   1       4.498  -3.887   5.820  0.00  0.00     0.034 A 
ATOM      4  C3  UNL d   1       4.516  -4.548   4.586  0.00  0.00     0.017 A 
ATOM      5  C4  UNL d   1       5.270  -4.024   3.529  0.00  0.00     0.017 A 
ATOM      6  C5  UNL d   1       5.999  -2.845   3.712  0.00  0.00     0.034 A 
ATOM      7 Cl   UNL d   1       5.342  -4.783   1.978  0.00  0.00    -0.070 Cl
ATOM      8 Cl1  UNL d   1       3.591  -5.999   4.437  0.00  0.00    -0.070 Cl
ENDROOT
TORSDOF 0
ENDMDL
