MODEL 1
REMARK minimizedAffinity -3.17663646
REMARK minimizedRMSD -1
REMARK  0 active torsions:
REMARK  status: ('A' for Active; 'I' for Inactive)
ROOT
ATOM      1  C   UNL d   1       5.999  -4.334   1.946  0.00  0.00     0.020 A 
ATOM      2  C1  UNL d   1       6.000  -2.944   2.058  0.00  0.00     0.020 A 
ATOM      3  C2  UNL d   1       5.960  -2.345   3.319  0.00  0.00     0.034 A 
ATOM      4  C3  UNL d   1       5.919  -3.136   4.473  0.00  0.00     0.017 A 
ATOM      5  C4  UNL d   1       5.918  -4.531   4.359  0.00  0.00     0.017 A 
ATOM      6  C5  UNL d   1       5.958  -5.126   3.094  0.00  0.00     0.034 A 
ATOM      7 Cl   UNL d   1       5.869  -5.574   5.737  0.00  0.00    -0.070 Cl
ATOM      8 Cl1  UNL d   1       5.870  -2.329   6.000  0.00  0.00    -0.070 Cl
ENDROOT
TORSDOF 0
ENDMDL
