MODEL 1
REMARK minimizedAffinity -3.48635268
REMARK minimizedRMSD -1
REMARK  0 active torsions:
REMARK  status: ('A' for Active; 'I' for Inactive)
ROOT
ATOM      1  C   UNL d   1       4.905  -3.003   5.703  0.00  0.00     0.020 A 
ATOM      2  C1  UNL d   1       4.893  -4.388   5.860  0.00  0.00     0.020 A 
ATOM      3  C2  UNL d   1       5.224  -5.215   4.784  0.00  0.00     0.034 A 
ATOM      4  C3  UNL d   1       5.570  -4.658   3.548  0.00  0.00     0.017 A 
ATOM      5  C4  UNL d   1       5.582  -3.267   3.392  0.00  0.00     0.017 A 
ATOM      6  C5  UNL d   1       5.249  -2.444   4.472  0.00  0.00     0.034 A 
ATOM      7 Cl   UNL d   1       5.998  -2.506   1.897  0.00  0.00    -0.070 Cl
ATOM      8 Cl1  UNL d   1       5.969  -5.741   2.262  0.00  0.00    -0.070 Cl
ENDROOT
TORSDOF 0
ENDMDL
