MODEL 1
REMARK minimizedAffinity 0.339515537
REMARK minimizedRMSD -1
REMARK  0 active torsions:
REMARK  status: ('A' for Active; 'I' for Inactive)
ROOT
ATOM      1  C   UNL d   1       5.906  -3.142   6.000  0.00  0.00     0.020 A 
ATOM      2  C1  UNL d   1       5.918  -4.534   5.927  0.00  0.00     0.020 A 
ATOM      3  C2  UNL d   1       5.947  -5.169   4.684  0.00  0.00     0.034 A 
ATOM      4  C3  UNL d   1       5.963  -4.410   3.507  0.00  0.00     0.017 A 
ATOM      5  C4  UNL d   1       5.951  -3.013   3.581  0.00  0.00     0.017 A 
ATOM      6  C5  UNL d   1       5.922  -2.383   4.829  0.00  0.00     0.034 A 
ATOM      7 Cl   UNL d   1       5.970  -2.010   2.173  0.00  0.00    -0.070 Cl
ATOM      8 Cl1  UNL d   1       5.999  -5.261   2.004  0.00  0.00    -0.070 Cl
ENDROOT
TORSDOF 0
ENDMDL
