MODEL 1
REMARK minimizedAffinity -3.21409249
REMARK minimizedRMSD -1
REMARK  0 active torsions:
REMARK  status: ('A' for Active; 'I' for Inactive)
ROOT
ATOM      1  C   UNL d   1       4.965  -2.254   3.108  0.00  0.00     0.020 A 
ATOM      2  C1  UNL d   1       4.965  -2.245   4.502  0.00  0.00     0.020 A 
ATOM      3  C2  UNL d   1       5.288  -3.407   5.207  0.00  0.00     0.034 A 
ATOM      4  C3  UNL d   1       5.611  -4.581   4.518  0.00  0.00     0.017 A 
ATOM      5  C4  UNL d   1       5.611  -4.589   3.119  0.00  0.00     0.017 A 
ATOM      6  C5  UNL d   1       5.287  -3.423   2.418  0.00  0.00     0.034 A 
ATOM      7 Cl   UNL d   1       5.999  -6.000   2.199  0.00  0.00    -0.070 Cl
ATOM      8 Cl1  UNL d   1       6.000  -5.981   5.454  0.00  0.00    -0.070 Cl
ENDROOT
TORSDOF 0
ENDMDL
