MODEL 1
REMARK minimizedAffinity -0.27596733
REMARK minimizedRMSD -1
REMARK  0 active torsions:
REMARK  status: ('A' for Active; 'I' for Inactive)
ROOT
ATOM      1  C   UNL d   1       6.000  -2.737   2.072  0.00  0.00     0.020 A 
ATOM      2  C1  UNL d   1       6.000  -4.131   2.087  0.00  0.00     0.020 A 
ATOM      3  C2  UNL d   1       5.998  -4.816   3.303  0.00  0.00     0.034 A 
ATOM      4  C3  UNL d   1       5.996  -4.108   4.510  0.00  0.00     0.017 A 
ATOM      5  C4  UNL d   1       5.996  -2.708   4.495  0.00  0.00     0.017 A 
ATOM      6  C5  UNL d   1       5.998  -2.027   3.274  0.00  0.00     0.034 A 
ATOM      7 Cl   UNL d   1       5.994  -1.765   5.943  0.00  0.00    -0.070 Cl
ATOM      8 Cl1  UNL d   1       5.994  -5.020   5.978  0.00  0.00    -0.070 Cl
ENDROOT
TORSDOF 0
ENDMDL
