MODEL 1
REMARK minimizedAffinity -3.42520523
REMARK minimizedRMSD -1
REMARK  0 active torsions:
REMARK  status: ('A' for Active; 'I' for Inactive)
ROOT
ATOM      1  C   UNL d   1       5.785  -4.337   5.893  0.00  0.00     0.020 A 
ATOM      2  C1  UNL d   1       5.786  -2.945   5.819  0.00  0.00     0.020 A 
ATOM      3  C2  UNL d   1       5.852  -2.312   4.576  0.00  0.00     0.034 A 
ATOM      4  C3  UNL d   1       5.919  -3.072   3.402  0.00  0.00     0.017 A 
ATOM      5  C4  UNL d   1       5.918  -4.470   3.478  0.00  0.00     0.017 A 
ATOM      6  C5  UNL d   1       5.851  -5.098   4.725  0.00  0.00     0.034 A 
ATOM      7 Cl   UNL d   1       5.997  -5.474   2.073  0.00  0.00    -0.070 Cl
ATOM      8 Cl1  UNL d   1       5.998  -2.223   1.899  0.00  0.00    -0.070 Cl
ENDROOT
TORSDOF 0
ENDMDL
