MODEL 1
REMARK minimizedAffinity -2.92482305
REMARK minimizedRMSD -1
REMARK  0 active torsions:
REMARK  status: ('A' for Active; 'I' for Inactive)
ROOT
ATOM      1  C   UNL d   1       4.709  -3.747   5.998  0.00  0.00     0.020 A 
ATOM      2  C1  UNL d   1       4.870  -5.125   5.858  0.00  0.00     0.020 A 
ATOM      3  C2  UNL d   1       5.269  -5.660   4.631  0.00  0.00     0.034 A 
ATOM      4  C3  UNL d   1       5.508  -4.816   3.540  0.00  0.00     0.017 A 
ATOM      5  C4  UNL d   1       5.347  -3.433   3.682  0.00  0.00     0.017 A 
ATOM      6  C5  UNL d   1       4.947  -2.903   4.913  0.00  0.00     0.034 A 
ATOM      7 Cl   UNL d   1       5.624  -2.330   2.381  0.00  0.00    -0.070 Cl
ATOM      8 Cl1  UNL d   1       5.999  -5.547   2.053  0.00  0.00    -0.070 Cl
ENDROOT
TORSDOF 0
ENDMDL
