MODEL 1
REMARK minimizedAffinity -0.00122779422
REMARK minimizedRMSD -1
REMARK  0 active torsions:
REMARK  status: ('A' for Active; 'I' for Inactive)
ROOT
ATOM      1  C   UNL d   1       5.602  -1.875   2.306  0.00  0.00     0.020 A 
ATOM      2  C1  UNL d   1       4.666  -1.638   3.311  0.00  0.00     0.020 A 
ATOM      3  C2  UNL d   1       4.125  -2.708   4.029  0.00  0.00     0.034 A 
ATOM      4  C3  UNL d   1       4.521  -4.019   3.742  0.00  0.00     0.017 A 
ATOM      5  C4  UNL d   1       5.462  -4.256   2.732  0.00  0.00     0.017 A 
ATOM      6  C5  UNL d   1       5.999  -3.181   2.017  0.00  0.00     0.034 A 
ATOM      7 Cl   UNL d   1       5.999  -5.846   2.321  0.00  0.00    -0.070 Cl
ATOM      8 Cl1  UNL d   1       3.813  -5.294   4.668  0.00  0.00    -0.070 Cl
ENDROOT
TORSDOF 0
ENDMDL
