MODEL 1
REMARK minimizedAffinity -3.56387329
REMARK minimizedRMSD -1
REMARK  0 active torsions:
REMARK  status: ('A' for Active; 'I' for Inactive)
ROOT
ATOM      1  C   UNL d   1       5.988  -2.248   2.183  0.00  0.00     0.020 A 
ATOM      2  C1  UNL d   1       5.984  -3.540   1.660  0.00  0.00     0.020 A 
ATOM      3  C2  UNL d   1       5.649  -4.622   2.476  0.00  0.00     0.034 A 
ATOM      4  C3  UNL d   1       5.317  -4.414   3.820  0.00  0.00     0.017 A 
ATOM      5  C4  UNL d   1       5.322  -3.117   4.344  0.00  0.00     0.017 A 
ATOM      6  C5  UNL d   1       5.657  -2.036   3.522  0.00  0.00     0.034 A 
ATOM      7 Cl   UNL d   1       4.924  -2.781   5.992  0.00  0.00    -0.070 Cl
ATOM      8 Cl1  UNL d   1       4.914  -5.799   4.771  0.00  0.00    -0.070 Cl
ENDROOT
TORSDOF 0
ENDMDL
