MODEL 1
REMARK minimizedAffinity -0.35197562
REMARK minimizedRMSD -1
REMARK  0 active torsions:
REMARK  status: ('A' for Active; 'I' for Inactive)
ROOT
ATOM      1  C2' OXE d   1       3.467  -1.265  -0.007  0.00  0.00     0.078 C 
ATOM      2  C1' OXE d   1       2.203   0.206   2.023  0.00  0.00     0.078 C 
ATOM      3  C1  OXE d   1       1.463   0.023   0.721  0.00  0.00    -0.078 A 
ATOM      4  C2  OXE d   1       2.108  -0.658  -0.283  0.00  0.00    -0.078 A 
ATOM      5  C3  OXE d   1       1.449  -0.902  -1.484  0.00  0.00     0.003 A 
ATOM      6  C4  OXE d   1       0.196  -0.329  -1.735  0.00  0.00    -0.002 A 
ATOM      7  C5  OXE d   1      -0.462   0.402  -0.740  0.00  0.00    -0.002 A 
ATOM      8  C6  OXE d   1       0.138   0.550   0.506  0.00  0.00     0.003 A 
ENDROOT
TORSDOF 0
ENDMDL
