MODEL 1
REMARK minimizedAffinity -1.26723754
REMARK minimizedRMSD -1
REMARK  0 active torsions:
REMARK  status: ('A' for Active; 'I' for Inactive)
ROOT
ATOM      1  C2' OXE d   1      -2.621  -0.833   1.092  0.00  0.00     0.078 C 
ATOM      2  C1' OXE d   1      -1.072  -2.184   3.004  0.00  0.00     0.078 C 
ATOM      3  C1  OXE d   1      -0.350  -1.341   1.982  0.00  0.00    -0.078 A 
ATOM      4  C2  OXE d   1      -1.113  -0.720   1.022  0.00  0.00    -0.078 A 
ATOM      5  C3  OXE d   1      -0.502   0.113   0.089  0.00  0.00     0.003 A 
ATOM      6  C4  OXE d   1       0.893   0.203   0.026  0.00  0.00    -0.002 A 
ATOM      7  C5  OXE d   1       1.691  -0.452   0.970  0.00  0.00    -0.002 A 
ATOM      8  C6  OXE d   1       1.084  -1.192   1.978  0.00  0.00     0.003 A 
ENDROOT
TORSDOF 0
ENDMDL
