MODEL 1
REMARK minimizedAffinity 1.39944565
REMARK minimizedRMSD -1
REMARK  0 active torsions:
REMARK  status: ('A' for Active; 'I' for Inactive)
ROOT
ATOM      1  C2' OXE d   1      -1.179   0.122  -1.118  0.00  0.00     0.078 C 
ATOM      2  C1' OXE d   1      -0.510   0.000   1.605  0.00  0.00     0.078 C 
ATOM      3  C1  OXE d   1       0.536  -0.423   0.604  0.00  0.00    -0.078 A 
ATOM      4  C2  OXE d   1       0.184  -0.404  -0.724  0.00  0.00    -0.078 A 
ATOM      5  C3  OXE d   1       1.129  -0.732  -1.692  0.00  0.00     0.003 A 
ATOM      6  C4  OXE d   1       2.384  -1.227  -1.319  0.00  0.00    -0.002 A 
ATOM      7  C5  OXE d   1       2.749  -1.292   0.030  0.00  0.00    -0.002 A 
ATOM      8  C6  OXE d   1       1.854  -0.854   1.000  0.00  0.00     0.003 A 
ENDROOT
TORSDOF 0
ENDMDL
