MODEL 1
REMARK minimizedAffinity 1.10103428
REMARK minimizedRMSD -1
REMARK  0 active torsions:
REMARK  status: ('A' for Active; 'I' for Inactive)
ROOT
ATOM      1  C2' OXE d   1      -0.696  -0.366   0.065  0.00  0.00     0.078 C 
ATOM      2  C1' OXE d   1       1.406  -0.823  -1.739  0.00  0.00     0.078 C 
ATOM      3  C1  OXE d   1       1.734  -0.802  -0.267  0.00  0.00    -0.078 A 
ATOM      4  C2  OXE d   1       0.707  -0.531   0.606  0.00  0.00    -0.078 A 
ATOM      5  C3  OXE d   1       0.945  -0.554   1.977  0.00  0.00     0.003 A 
ATOM      6  C4  OXE d   1       2.248  -0.697   2.469  0.00  0.00    -0.002 A 
ATOM      7  C5  OXE d   1       3.314  -0.934   1.595  0.00  0.00    -0.002 A 
ATOM      8  C6  OXE d   1       3.068  -1.032   0.230  0.00  0.00     0.003 A 
ENDROOT
TORSDOF 0
ENDMDL
