MODEL 1
REMARK minimizedAffinity -5.34648848
REMARK minimizedRMSD -1
REMARK  0 active torsions:
REMARK  status: ('A' for Active; 'I' for Inactive)
ROOT
ATOM      1  O1  BZF d   1       1.069   3.823   0.396  0.00  0.00    -0.204 OA
ATOM      2  C2  BZF d   1       1.489   4.675  -0.607  0.00  0.00     0.174 A 
ATOM      3  C3  BZF d   1       1.897   3.979  -1.688  0.00  0.00    -0.012 A 
ATOM      4  C3A BZF d   1       1.633   2.608  -1.373  0.00  0.00    -0.107 A 
ATOM      5  C4  BZF d   1       1.807   1.438  -2.055  0.00  0.00     0.055 A 
ATOM      6  C5  BZF d   1       1.516   0.263  -1.436  0.00  0.00    -0.016 A 
ATOM      7  C6  BZF d   1       1.055   0.222  -0.137  0.00  0.00     0.022 A 
ATOM      8  C7  BZF d   1       0.862   1.357   0.578  0.00  0.00     0.029 A 
ATOM      9  C7A BZF d   1       1.124   2.547  -0.055  0.00  0.00     0.058 A 
ENDROOT
TORSDOF 0
ENDMDL
