MODEL 1
REMARK minimizedAffinity 1.18961775
REMARK minimizedRMSD -1
REMARK  0 active torsions:
REMARK  status: ('A' for Active; 'I' for Inactive)
ROOT
ATOM      1  O1  BZF d   1       1.516   0.723  -2.758  0.00  0.00    -0.204 OA
ATOM      2  C2  BZF d   1       1.404  -0.433  -2.009  0.00  0.00     0.174 A 
ATOM      3  C3  BZF d   1       1.256  -0.142  -0.701  0.00  0.00    -0.012 A 
ATOM      4  C3A BZF d   1       1.184   1.285  -0.638  0.00  0.00    -0.107 A 
ATOM      5  C4  BZF d   1       1.022   2.173   0.387  0.00  0.00     0.055 A 
ATOM      6  C5  BZF d   1       1.068   3.505   0.121  0.00  0.00    -0.016 A 
ATOM      7  C6  BZF d   1       1.279   3.983  -1.155  0.00  0.00     0.022 A 
ATOM      8  C7  BZF d   1       1.439   3.141  -2.205  0.00  0.00     0.029 A 
ATOM      9  C7A BZF d   1       1.360   1.795  -1.945  0.00  0.00     0.058 A 
ENDROOT
TORSDOF 0
ENDMDL
