MODEL 1
REMARK minimizedAffinity -0.016831141
REMARK minimizedRMSD -1
REMARK  0 active torsions:
REMARK  status: ('A' for Active; 'I' for Inactive)
ROOT
ATOM      1  O1  BZF d   1       1.835   3.226   0.932  0.00  0.00    -0.204 OA
ATOM      2  C2  BZF d   1       1.903   2.450   2.073  0.00  0.00     0.174 A 
ATOM      3  C3  BZF d   1       1.685   1.152   1.782  0.00  0.00    -0.012 A 
ATOM      4  C3A BZF d   1       1.557   1.101   0.358  0.00  0.00    -0.107 A 
ATOM      5  C4  BZF d   1       1.346   0.085  -0.530  0.00  0.00     0.055 A 
ATOM      6  C5  BZF d   1       1.199   0.381  -1.848  0.00  0.00    -0.016 A 
ATOM      7  C6  BZF d   1       1.252   1.679  -2.312  0.00  0.00     0.022 A 
ATOM      8  C7  BZF d   1       1.465   2.719  -1.469  0.00  0.00     0.029 A 
ATOM      9  C7A BZF d   1       1.647   2.421  -0.141  0.00  0.00     0.058 A 
ENDROOT
TORSDOF 0
ENDMDL
