MODEL 1
REMARK minimizedAffinity -2.60564041
REMARK minimizedRMSD -1
REMARK  0 active torsions:
REMARK  status: ('A' for Active; 'I' for Inactive)
ROOT
ATOM      1  O1  BZF d   1       1.248   1.006   0.952  0.00  0.00    -0.204 OA
ATOM      2  C2  BZF d   1       1.103  -0.022   0.040  0.00  0.00     0.174 A 
ATOM      3  C3  BZF d   1       1.081   0.457  -1.221  0.00  0.00    -0.012 A 
ATOM      4  C3A BZF d   1       1.313   1.863  -1.093  0.00  0.00    -0.107 A 
ATOM      5  C4  BZF d   1       1.419   2.882  -1.996  0.00  0.00     0.055 A 
ATOM      6  C5  BZF d   1       1.574   4.153  -1.541  0.00  0.00    -0.016 A 
ATOM      7  C6  BZF d   1       1.623   4.441  -0.193  0.00  0.00     0.022 A 
ATOM      8  C7  BZF d   1       1.527   3.463   0.740  0.00  0.00     0.029 A 
ATOM      9  C7A BZF d   1       1.403   2.174   0.283  0.00  0.00     0.058 A 
ENDROOT
TORSDOF 0
ENDMDL
