MODEL 1
REMARK minimizedAffinity 14.0375519
REMARK minimizedRMSD -1
REMARK  0 active torsions:
REMARK  status: ('A' for Active; 'I' for Inactive)
ROOT
ATOM      1  O1  BZF d   1       1.072   0.395   5.909  0.00  0.00    -0.204 OA
ATOM      2  C2  BZF d   1       2.029  -0.602   5.914  0.00  0.00     0.174 A 
ATOM      3  C3  BZF d   1       1.452  -1.818   5.997  0.00  0.00    -0.012 A 
ATOM      4  C3A BZF d   1       0.044  -1.571   5.954  0.00  0.00    -0.107 A 
ATOM      5  C4  BZF d   1      -1.054  -2.383   5.983  0.00  0.00     0.055 A 
ATOM      6  C5  BZF d   1      -2.291  -1.821   5.999  0.00  0.00    -0.016 A 
ATOM      7  C6  BZF d   1      -2.467  -0.453   5.993  0.00  0.00     0.022 A 
ATOM      8  C7  BZF d   1      -1.409   0.393   5.959  0.00  0.00     0.029 A 
ATOM      9  C7A BZF d   1      -0.158  -0.172   5.910  0.00  0.00     0.058 A 
ENDROOT
TORSDOF 0
ENDMDL
