MODEL 1
REMARK minimizedAffinity 1.06683111
REMARK minimizedRMSD -1
REMARK  0 active torsions:
REMARK  status: ('A' for Active; 'I' for Inactive)
ROOT
ATOM      1  O1  BZF d   1       2.051  -1.002  -0.036  0.00  0.00    -0.204 OA
ATOM      2  C2  BZF d   1       1.954  -0.044  -1.026  0.00  0.00     0.174 A 
ATOM      3  C3  BZF d   1       1.152  -0.467  -2.024  0.00  0.00    -0.012 A 
ATOM      4  C3A BZF d   1       0.648  -1.734  -1.591  0.00  0.00    -0.107 A 
ATOM      5  C4  BZF d   1      -0.210  -2.642  -2.142  0.00  0.00     0.055 A 
ATOM      6  C5  BZF d   1      -0.437  -3.815  -1.494  0.00  0.00    -0.016 A 
ATOM      7  C6  BZF d   1       0.179  -4.114  -0.297  0.00  0.00     0.022 A 
ATOM      8  C7  BZF d   1       1.034  -3.242   0.292  0.00  0.00     0.029 A 
ATOM      9  C7A BZF d   1       1.241  -2.043  -0.344  0.00  0.00     0.058 A 
ENDROOT
TORSDOF 0
ENDMDL
