MODEL 1
REMARK minimizedAffinity 2.19250941
REMARK minimizedRMSD -1
REMARK  0 active torsions:
REMARK  status: ('A' for Active; 'I' for Inactive)
ROOT
ATOM      1  O1  BZF d   1       1.327   0.959   1.133  0.00  0.00    -0.204 OA
ATOM      2  C2  BZF d   1       1.314  -0.204   0.389  0.00  0.00     0.174 A 
ATOM      3  C3  BZF d   1       1.305   0.072  -0.931  0.00  0.00    -0.012 A 
ATOM      4  C3A BZF d   1       1.405   1.496  -1.018  0.00  0.00    -0.107 A 
ATOM      5  C4  BZF d   1       1.459   2.371  -2.065  0.00  0.00     0.055 A 
ATOM      6  C5  BZF d   1       1.481   3.706  -1.810  0.00  0.00    -0.016 A 
ATOM      7  C6  BZF d   1       1.445   4.200  -0.523  0.00  0.00     0.022 A 
ATOM      8  C7  BZF d   1       1.396   3.371   0.548  0.00  0.00     0.029 A 
ATOM      9  C7A BZF d   1       1.407   2.021   0.295  0.00  0.00     0.058 A 
ENDROOT
TORSDOF 0
ENDMDL
