MODEL 1
REMARK minimizedAffinity -5.7749691
REMARK minimizedRMSD -1
REMARK  0 active torsions:
REMARK  status: ('A' for Active; 'I' for Inactive)
ROOT
ATOM      1  O1  BZF d   1       1.599   4.203   0.192  0.00  0.00    -0.204 OA
ATOM      2  C2  BZF d   1       1.828   4.488  -1.140  0.00  0.00     0.174 A 
ATOM      3  C3  BZF d   1       1.735   3.373  -1.891  0.00  0.00    -0.012 A 
ATOM      4  C3A BZF d   1       1.337   2.340  -0.984  0.00  0.00    -0.107 A 
ATOM      5  C4  BZF d   1       1.067   1.010  -1.136  0.00  0.00     0.055 A 
ATOM      6  C5  BZF d   1       0.776   0.265  -0.037  0.00  0.00    -0.016 A 
ATOM      7  C6  BZF d   1       0.753   0.816   1.228  0.00  0.00     0.022 A 
ATOM      8  C7  BZF d   1       1.010   2.132   1.428  0.00  0.00     0.029 A 
ATOM      9  C7A BZF d   1       1.272   2.894   0.315  0.00  0.00     0.058 A 
ENDROOT
TORSDOF 0
ENDMDL
