MODEL 1
REMARK minimizedAffinity -3.78344917
REMARK minimizedRMSD -1
REMARK  0 active torsions:
REMARK  status: ('A' for Active; 'I' for Inactive)
ROOT
ATOM      1  O1  BZF d   1       1.190   3.796  -0.077  0.00  0.00    -0.204 OA
ATOM      2  C2  BZF d   1       1.320   4.055  -1.428  0.00  0.00     0.174 A 
ATOM      3  C3  BZF d   1       1.320   2.907  -2.137  0.00  0.00    -0.012 A 
ATOM      4  C3A BZF d   1       1.088   1.872  -1.177  0.00  0.00    -0.107 A 
ATOM      5  C4  BZF d   1       0.966   0.515  -1.271  0.00  0.00     0.055 A 
ATOM      6  C5  BZF d   1       0.817  -0.215  -0.134  0.00  0.00    -0.016 A 
ATOM      7  C6  BZF d   1       0.791   0.378   1.111  0.00  0.00     0.022 A 
ATOM      8  C7  BZF d   1       0.904   1.721   1.254  0.00  0.00     0.029 A 
ATOM      9  C7A BZF d   1       1.022   2.464   0.105  0.00  0.00     0.058 A 
ENDROOT
TORSDOF 0
ENDMDL
