MODEL 1
REMARK minimizedAffinity -1.71486354
REMARK minimizedRMSD -1
REMARK  0 active torsions:
REMARK  status: ('A' for Active; 'I' for Inactive)
ROOT
ATOM      1  O1  BZF d   1       1.241   1.242  -2.299  0.00  0.00    -0.204 OA
ATOM      2  C2  BZF d   1       1.285   0.107  -1.513  0.00  0.00     0.174 A 
ATOM      3  C3  BZF d   1       1.426   0.431  -0.211  0.00  0.00    -0.012 A 
ATOM      4  C3A BZF d   1       1.380   1.860  -0.172  0.00  0.00    -0.107 A 
ATOM      5  C4  BZF d   1       1.450   2.775   0.839  0.00  0.00     0.055 A 
ATOM      6  C5  BZF d   1       1.447   4.099   0.534  0.00  0.00    -0.016 A 
ATOM      7  C6  BZF d   1       1.380   4.543  -0.770  0.00  0.00     0.022 A 
ATOM      8  C7  BZF d   1       1.303   3.674  -1.807  0.00  0.00     0.029 A 
ATOM      9  C7A BZF d   1       1.273   2.336  -1.500  0.00  0.00     0.058 A 
ENDROOT
TORSDOF 0
ENDMDL
