MODEL 1
REMARK minimizedAffinity 8.30903149
REMARK minimizedRMSD -1
REMARK  0 active torsions:
REMARK  status: ('A' for Active; 'I' for Inactive)
ROOT
ATOM      1  O1  BZF d   1       1.265   1.655  -2.555  0.00  0.00    -0.204 OA
ATOM      2  C2  BZF d   1       1.832   2.862  -2.193  0.00  0.00     0.174 A 
ATOM      3  C3  BZF d   1       2.134   2.873  -0.879  0.00  0.00    -0.012 A 
ATOM      4  C3A BZF d   1       1.816   1.560  -0.408  0.00  0.00    -0.107 A 
ATOM      5  C4  BZF d   1       1.912   0.951   0.811  0.00  0.00     0.055 A 
ATOM      6  C5  BZF d   1       1.447  -0.318   0.953  0.00  0.00    -0.016 A 
ATOM      7  C6  BZF d   1       0.878  -1.005  -0.099  0.00  0.00     0.022 A 
ATOM      8  C7  BZF d   1       0.766  -0.444  -1.328  0.00  0.00     0.029 A 
ATOM      9  C7A BZF d   1       1.264   0.827  -1.483  0.00  0.00     0.058 A 
ENDROOT
TORSDOF 0
ENDMDL
