MODEL 1
REMARK minimizedAffinity -1.68150032
REMARK minimizedRMSD -1
REMARK  0 active torsions:
REMARK  status: ('A' for Active; 'I' for Inactive)
ROOT
ATOM      1  O1  BZF d   1       1.039   3.508   0.653  0.00  0.00    -0.204 OA
ATOM      2  C2  BZF d   1       1.396   4.424  -0.318  0.00  0.00     0.174 A 
ATOM      3  C3  BZF d   1       1.729   3.798  -1.466  0.00  0.00    -0.012 A 
ATOM      4  C3A BZF d   1       1.483   2.410  -1.222  0.00  0.00    -0.107 A 
ATOM      5  C4  BZF d   1       1.608   1.286  -1.988  0.00  0.00     0.055 A 
ATOM      6  C5  BZF d   1       1.355   0.073  -1.428  0.00  0.00    -0.016 A 
ATOM      7  C6  BZF d   1       0.981  -0.052  -0.106  0.00  0.00     0.022 A 
ATOM      8  C7  BZF d   1       0.838   1.035   0.691  0.00  0.00     0.029 A 
ATOM      9  C7A BZF d   1       1.061   2.264   0.119  0.00  0.00     0.058 A 
ENDROOT
TORSDOF 0
ENDMDL
