MODEL 1
REMARK minimizedAffinity -3.11124277
REMARK minimizedRMSD -1
REMARK  0 active torsions:
REMARK  status: ('A' for Active; 'I' for Inactive)
ROOT
ATOM      1  O1  BZF d   1       1.079   3.587  -0.886  0.00  0.00    -0.204 OA
ATOM      2  C2  BZF d   1       1.316   3.538  -2.246  0.00  0.00     0.174 A 
ATOM      3  C3  BZF d   1       1.538   2.270  -2.648  0.00  0.00    -0.012 A 
ATOM      4  C3A BZF d   1       1.342   1.466  -1.481  0.00  0.00    -0.107 A 
ATOM      5  C4  BZF d   1       1.405   0.122  -1.245  0.00  0.00     0.055 A 
ATOM      6  C5  BZF d   1       1.232  -0.334   0.024  0.00  0.00    -0.016 A 
ATOM      7  C6  BZF d   1       1.000   0.523   1.079  0.00  0.00     0.022 A 
ATOM      8  C7  BZF d   1       0.924   1.864   0.893  0.00  0.00     0.029 A 
ATOM      9  C7A BZF d   1       1.065   2.326  -0.393  0.00  0.00     0.058 A 
ENDROOT
TORSDOF 0
ENDMDL
