MODEL 1
REMARK minimizedAffinity 1.34262526
REMARK minimizedRMSD -1
REMARK  0 active torsions:
REMARK  status: ('A' for Active; 'I' for Inactive)
ROOT
ATOM      1  O1  BZF d   1      -3.769  -1.298   3.101  0.00  0.00    -0.204 OA
ATOM      2  C2  BZF d   1      -4.949  -2.009   2.992  0.00  0.00     0.174 A 
ATOM      3  C3  BZF d   1      -6.000  -1.253   3.370  0.00  0.00    -0.012 A 
ATOM      4  C3A BZF d   1      -5.453   0.039   3.649  0.00  0.00    -0.107 A 
ATOM      5  C4  BZF d   1      -6.000   1.223   4.052  0.00  0.00     0.055 A 
ATOM      6  C5  BZF d   1      -5.180   2.278   4.305  0.00  0.00    -0.016 A 
ATOM      7  C6  BZF d   1      -3.811   2.181   4.170  0.00  0.00     0.022 A 
ATOM      8  C7  BZF d   1      -3.222   1.029   3.767  0.00  0.00     0.029 A 
ATOM      9  C7A BZF d   1      -4.050  -0.028   3.479  0.00  0.00     0.058 A 
ENDROOT
TORSDOF 0
ENDMDL
