MODEL 1
REMARK minimizedAffinity -1.59495115
REMARK minimizedRMSD -1
REMARK  0 active torsions:
REMARK  status: ('A' for Active; 'I' for Inactive)
ROOT
ATOM      1  O1  BZF d   1       0.935   4.134  -2.072  0.00  0.00    -0.204 OA
ATOM      2  C2  BZF d   1       1.492   5.024  -1.174  0.00  0.00     0.174 A 
ATOM      3  C3  BZF d   1       1.846   4.396  -0.035  0.00  0.00    -0.012 A 
ATOM      4  C3A BZF d   1       1.573   3.011  -0.268  0.00  0.00    -0.107 A 
ATOM      5  C4  BZF d   1       1.729   1.883   0.486  0.00  0.00     0.055 A 
ATOM      6  C5  BZF d   1       1.296   0.693  -0.008  0.00  0.00    -0.016 A 
ATOM      7  C6  BZF d   1       0.698   0.596  -1.247  0.00  0.00     0.022 A 
ATOM      8  C7  BZF d   1       0.527   1.686  -2.034  0.00  0.00     0.029 A 
ATOM      9  C7A BZF d   1       0.993   2.884  -1.552  0.00  0.00     0.058 A 
ENDROOT
TORSDOF 0
ENDMDL
