MODEL 1
REMARK minimizedAffinity -2.12204075
REMARK minimizedRMSD -1
REMARK  0 active torsions:
REMARK  status: ('A' for Active; 'I' for Inactive)
ROOT
ATOM      1  O1  BZF d   1       1.189   3.327  -0.341  0.00  0.00    -0.204 OA
ATOM      2  C2  BZF d   1       0.856   3.227   0.996  0.00  0.00     0.174 A 
ATOM      3  C3  BZF d   1       0.715   1.936   1.358  0.00  0.00    -0.012 A 
ATOM      4  C3A BZF d   1       1.067   1.178   0.197  0.00  0.00    -0.107 A 
ATOM      5  C4  BZF d   1       1.138  -0.160  -0.066  0.00  0.00     0.055 A 
ATOM      6  C5  BZF d   1       1.444  -0.571  -1.324  0.00  0.00    -0.016 A 
ATOM      7  C6  BZF d   1       1.680   0.327  -2.344  0.00  0.00     0.022 A 
ATOM      8  C7  BZF d   1       1.626   1.665  -2.131  0.00  0.00     0.029 A 
ATOM      9  C7A BZF d   1       1.349   2.083  -0.853  0.00  0.00     0.058 A 
ENDROOT
TORSDOF 0
ENDMDL
