MODEL 1
REMARK minimizedAffinity -0.345023841
REMARK minimizedRMSD -1
REMARK  0 active torsions:
REMARK  status: ('A' for Active; 'I' for Inactive)
ROOT
ATOM      1  C   UNL d   1       1.216  -1.419   0.177  0.00  0.00     0.078 C 
ATOM      2  C1  UNL d   1       0.069  -0.473   0.374  0.00  0.00    -0.077 A 
ATOM      3  C2  UNL d   1       0.027   0.757  -0.293  0.00  0.00    -0.001 A 
ATOM      4  C3  UNL d   1      -1.041   1.633  -0.092  0.00  0.00     0.003 A 
ATOM      5  C4  UNL d   1      -2.075   1.288   0.776  0.00  0.00    -0.005 A 
ATOM      6  C5  UNL d   1      -2.041   0.067   1.446  0.00  0.00     0.003 A 
ATOM      7  C6  UNL d   1      -0.973  -0.810   1.247  0.00  0.00    -0.001 A 
ENDROOT
TORSDOF 0
ENDMDL
