MODEL 1
REMARK minimizedAffinity -3.07442284
REMARK minimizedRMSD -1
REMARK  0 active torsions:
REMARK  status: ('A' for Active; 'I' for Inactive)
ROOT
ATOM      1  C   UNL d   1       1.474  -1.549  -1.851  0.00  0.00     0.078 C 
ATOM      2  C1  UNL d   1       0.477  -1.196  -0.788  0.00  0.00    -0.077 A 
ATOM      3  C2  UNL d   1       0.429   0.093  -0.243  0.00  0.00    -0.001 A 
ATOM      4  C3  UNL d   1      -0.497   0.405   0.753  0.00  0.00     0.003 A 
ATOM      5  C4  UNL d   1      -1.382  -0.567   1.214  0.00  0.00    -0.005 A 
ATOM      6  C5  UNL d   1      -1.341  -1.853   0.680  0.00  0.00     0.003 A 
ATOM      7  C6  UNL d   1      -0.415  -2.167  -0.316  0.00  0.00    -0.001 A 
ENDROOT
TORSDOF 0
ENDMDL
