MODEL 1
REMARK minimizedAffinity -1.46201885
REMARK minimizedRMSD -1
REMARK  0 active torsions:
REMARK  status: ('A' for Active; 'I' for Inactive)
ROOT
ATOM      1  C   UNL d   1      -0.523   0.381   0.693  0.00  0.00     0.078 C 
ATOM      2  C1  UNL d   1       0.425   0.412  -0.468  0.00  0.00    -0.077 A 
ATOM      3  C2  UNL d   1       0.459   1.505  -1.343  0.00  0.00    -0.001 A 
ATOM      4  C3  UNL d   1       1.340   1.516  -2.425  0.00  0.00     0.003 A 
ATOM      5  C4  UNL d   1       2.194   0.436  -2.643  0.00  0.00    -0.005 A 
ATOM      6  C5  UNL d   1       2.167  -0.656  -1.779  0.00  0.00     0.003 A 
ATOM      7  C6  UNL d   1       1.286  -0.669  -0.696  0.00  0.00    -0.001 A 
ENDROOT
TORSDOF 0
ENDMDL
