MODEL 1
REMARK minimizedAffinity -5.0406146
REMARK minimizedRMSD -1
REMARK  0 active torsions:
REMARK  status: ('A' for Active; 'I' for Inactive)
ROOT
ATOM      1  C   UNL d   1      -0.775   0.122   0.840  0.00  0.00     0.078 C 
ATOM      2  C1  UNL d   1       0.393  -0.119  -0.070  0.00  0.00    -0.077 A 
ATOM      3  C2  UNL d   1       1.013   0.940  -0.744  0.00  0.00    -0.001 A 
ATOM      4  C3  UNL d   1       2.092   0.700  -1.595  0.00  0.00     0.003 A 
ATOM      5  C4  UNL d   1       2.561  -0.599  -1.781  0.00  0.00    -0.005 A 
ATOM      6  C5  UNL d   1       1.949  -1.660  -1.117  0.00  0.00     0.003 A 
ATOM      7  C6  UNL d   1       0.869  -1.422  -0.265  0.00  0.00    -0.001 A 
ENDROOT
TORSDOF 0
ENDMDL
