MODEL 1
REMARK minimizedAffinity -5.14559031
REMARK minimizedRMSD -1
REMARK  0 active torsions:
REMARK  status: ('A' for Active; 'I' for Inactive)
ROOT
ATOM      1  C   UNL d   1      -1.051   0.310   0.779  0.00  0.00     0.078 C 
ATOM      2  C1  UNL d   1       0.096  -0.062  -0.112  0.00  0.00    -0.077 A 
ATOM      3  C2  UNL d   1       0.930   0.920  -0.662  0.00  0.00    -0.001 A 
ATOM      4  C3  UNL d   1       1.988   0.560  -1.498  0.00  0.00     0.003 A 
ATOM      5  C4  UNL d   1       2.223  -0.782  -1.791  0.00  0.00    -0.005 A 
ATOM      6  C5  UNL d   1       1.397  -1.765  -1.250  0.00  0.00     0.003 A 
ATOM      7  C6  UNL d   1       0.338  -1.407  -0.414  0.00  0.00    -0.001 A 
ENDROOT
TORSDOF 0
ENDMDL
