MODEL 1
REMARK minimizedAffinity -2.37659216
REMARK minimizedRMSD -1
REMARK  0 active torsions:
REMARK  status: ('A' for Active; 'I' for Inactive)
ROOT
ATOM      1  C   UNL d   1       1.332  -0.852   0.575  0.00  0.00     0.078 C 
ATOM      2  C1  UNL d   1       0.004  -0.175   0.739  0.00  0.00    -0.077 A 
ATOM      3  C2  UNL d   1      -0.658  -0.174   1.973  0.00  0.00    -0.001 A 
ATOM      4  C3  UNL d   1      -1.898   0.452   2.109  0.00  0.00     0.003 A 
ATOM      5  C4  UNL d   1      -2.488   1.080   1.014  0.00  0.00    -0.005 A 
ATOM      6  C5  UNL d   1      -1.838   1.083  -0.219  0.00  0.00     0.003 A 
ATOM      7  C6  UNL d   1      -0.598   0.457  -0.356  0.00  0.00    -0.001 A 
ENDROOT
TORSDOF 0
ENDMDL
