MODEL 1
REMARK minimizedAffinity -3.80256796
REMARK minimizedRMSD -1
REMARK  0 active torsions:
REMARK  status: ('A' for Active; 'I' for Inactive)
ROOT
ATOM      1  C   UNL d   1      -1.379   0.364   0.699  0.00  0.00     0.078 C 
ATOM      2  C1  UNL d   1      -0.047  -0.209   0.319  0.00  0.00    -0.077 A 
ATOM      3  C2  UNL d   1       0.169  -0.752  -0.954  0.00  0.00    -0.001 A 
ATOM      4  C3  UNL d   1       1.411  -1.291  -1.290  0.00  0.00     0.003 A 
ATOM      5  C4  UNL d   1       2.448  -1.295  -0.359  0.00  0.00    -0.005 A 
ATOM      6  C5  UNL d   1       2.242  -0.759   0.911  0.00  0.00     0.003 A 
ATOM      7  C6  UNL d   1       1.000  -0.219   1.249  0.00  0.00    -0.001 A 
ENDROOT
TORSDOF 0
ENDMDL
