MODEL 1
REMARK minimizedAffinity -4.73606348
REMARK minimizedRMSD -1
REMARK  0 active torsions:
REMARK  status: ('A' for Active; 'I' for Inactive)
ROOT
ATOM      1  C   UNL d   1       0.343  -0.768   0.153  0.00  0.00     0.078 C 
ATOM      2  C1  UNL d   1       1.017  -0.045  -0.975  0.00  0.00    -0.077 A 
ATOM      3  C2  UNL d   1       2.322  -0.370  -1.363  0.00  0.00    -0.001 A 
ATOM      4  C3  UNL d   1       2.940   0.318  -2.408  0.00  0.00     0.003 A 
ATOM      5  C4  UNL d   1       2.261   1.338  -3.073  0.00  0.00    -0.005 A 
ATOM      6  C5  UNL d   1       0.963   1.670  -2.692  0.00  0.00     0.003 A 
ATOM      7  C6  UNL d   1       0.343   0.983  -1.647  0.00  0.00    -0.001 A 
ENDROOT
TORSDOF 0
ENDMDL
