MODEL 1
REMARK minimizedAffinity -5.93393326
REMARK minimizedRMSD -1
REMARK  0 active torsions:
REMARK  status: ('A' for Active; 'I' for Inactive)
ROOT
ATOM      1  C   UNL d   1       1.789   0.985  -3.109  0.00  0.00     0.078 C 
ATOM      2  C1  UNL d   1       1.506   0.180  -1.876  0.00  0.00    -0.077 A 
ATOM      3  C2  UNL d   1       0.357   0.412  -1.111  0.00  0.00    -0.001 A 
ATOM      4  C3  UNL d   1       0.111  -0.338   0.040  0.00  0.00     0.003 A 
ATOM      5  C4  UNL d   1       1.010  -1.325   0.437  0.00  0.00    -0.005 A 
ATOM      6  C5  UNL d   1       2.158  -1.563  -0.316  0.00  0.00     0.003 A 
ATOM      7  C6  UNL d   1       2.406  -0.813  -1.468  0.00  0.00    -0.001 A 
ENDROOT
TORSDOF 0
ENDMDL
