MODEL 1
REMARK minimizedAffinity -1.91329026
REMARK minimizedRMSD -1
REMARK  0 active torsions:
REMARK  status: ('A' for Active; 'I' for Inactive)
ROOT
ATOM      1  C   UNL d   1      -2.230  -3.100  -1.069  0.00  0.00     0.078 C 
ATOM      2  C1  UNL d   1      -1.420  -1.934  -0.585  0.00  0.00    -0.077 A 
ATOM      3  C2  UNL d   1      -2.015  -0.687  -0.359  0.00  0.00    -0.001 A 
ATOM      4  C3  UNL d   1      -1.247   0.392   0.083  0.00  0.00     0.003 A 
ATOM      5  C4  UNL d   1       0.120   0.234   0.300  0.00  0.00    -0.005 A 
ATOM      6  C5  UNL d   1       0.722  -1.002   0.076  0.00  0.00     0.003 A 
ATOM      7  C6  UNL d   1      -0.045  -2.082  -0.365  0.00  0.00    -0.001 A 
ENDROOT
TORSDOF 0
ENDMDL
