MODEL 1
REMARK minimizedAffinity -4.56837225
REMARK minimizedRMSD -1
REMARK  0 active torsions:
REMARK  status: ('A' for Active; 'I' for Inactive)
ROOT
ATOM      1  C   UNL d   1      -0.516   0.347   1.136  0.00  0.00     0.078 C 
ATOM      2  C1  UNL d   1       0.689  -0.159   0.403  0.00  0.00    -0.077 A 
ATOM      3  C2  UNL d   1       0.630  -1.333  -0.358  0.00  0.00    -0.001 A 
ATOM      4  C3  UNL d   1       1.763  -1.798  -1.028  0.00  0.00     0.003 A 
ATOM      5  C4  UNL d   1       2.964  -1.096  -0.942  0.00  0.00    -0.005 A 
ATOM      6  C5  UNL d   1       3.033   0.072  -0.185  0.00  0.00     0.003 A 
ATOM      7  C6  UNL d   1       1.901   0.538   0.485  0.00  0.00    -0.001 A 
ENDROOT
TORSDOF 0
ENDMDL
