MODEL 1
REMARK minimizedAffinity -4.21267843
REMARK minimizedRMSD -1
REMARK  0 active torsions:
REMARK  status: ('A' for Active; 'I' for Inactive)
ROOT
ATOM      1  C   UNL d   1      -1.397   0.143   1.068  0.00  0.00     0.078 C 
ATOM      2  C1  UNL d   1      -0.244  -0.374   0.260  0.00  0.00    -0.077 A 
ATOM      3  C2  UNL d   1       0.008  -1.747   0.159  0.00  0.00    -0.001 A 
ATOM      4  C3  UNL d   1       1.091  -2.213  -0.589  0.00  0.00     0.003 A 
ATOM      5  C4  UNL d   1       1.931  -1.312  -1.240  0.00  0.00    -0.005 A 
ATOM      6  C5  UNL d   1       1.689   0.057  -1.144  0.00  0.00     0.003 A 
ATOM      7  C6  UNL d   1       0.607   0.524  -0.397  0.00  0.00    -0.001 A 
ENDROOT
TORSDOF 0
ENDMDL
