MODEL 1
REMARK minimizedAffinity -4.98752165
REMARK minimizedRMSD -1
REMARK  0 active torsions:
REMARK  status: ('A' for Active; 'I' for Inactive)
ROOT
ATOM      1  C   UNL d   1      -1.138  -0.006   0.134  0.00  0.00     0.078 C 
ATOM      2  C1  UNL d   1       0.246  -0.350  -0.330  0.00  0.00    -0.077 A 
ATOM      3  C2  UNL d   1       0.741  -1.655  -0.216  0.00  0.00    -0.001 A 
ATOM      4  C3  UNL d   1       2.035  -1.959  -0.642  0.00  0.00     0.003 A 
ATOM      5  C4  UNL d   1       2.845  -0.963  -1.185  0.00  0.00    -0.005 A 
ATOM      6  C5  UNL d   1       2.362   0.339  -1.300  0.00  0.00     0.003 A 
ATOM      7  C6  UNL d   1       1.069   0.644  -0.874  0.00  0.00    -0.001 A 
ENDROOT
TORSDOF 0
ENDMDL
