MODEL 1
REMARK minimizedAffinity 0.727440417
REMARK minimizedRMSD -1
REMARK  0 active torsions:
REMARK  status: ('A' for Active; 'I' for Inactive)
ROOT
ATOM      1  C   UNL d   1      -1.093   0.719   3.454  0.00  0.00     0.078 C 
ATOM      2  C1  UNL d   1      -0.602   0.625   2.040  0.00  0.00    -0.077 A 
ATOM      3  C2  UNL d   1       0.186   1.639   1.482  0.00  0.00    -0.001 A 
ATOM      4  C3  UNL d   1       0.628   1.543   0.161  0.00  0.00     0.003 A 
ATOM      5  C4  UNL d   1       0.287   0.435  -0.612  0.00  0.00    -0.005 A 
ATOM      6  C5  UNL d   1      -0.499  -0.578  -0.066  0.00  0.00     0.003 A 
ATOM      7  C6  UNL d   1      -0.942  -0.484   1.255  0.00  0.00    -0.001 A 
ENDROOT
TORSDOF 0
ENDMDL
