MODEL 1
REMARK minimizedAffinity -4.54165173
REMARK minimizedRMSD -1
REMARK  0 active torsions:
REMARK  status: ('A' for Active; 'I' for Inactive)
ROOT
ATOM      1  C   UNL d   1       3.317  -0.443  -1.049  0.00  0.00     0.078 C 
ATOM      2  C1  UNL d   1       1.905  -0.595  -0.569  0.00  0.00    -0.077 A 
ATOM      3  C2  UNL d   1       1.318  -1.861  -0.445  0.00  0.00    -0.001 A 
ATOM      4  C3  UNL d   1      -0.001  -1.987  -0.006  0.00  0.00     0.003 A 
ATOM      5  C4  UNL d   1      -0.744  -0.852   0.312  0.00  0.00    -0.005 A 
ATOM      6  C5  UNL d   1      -0.169   0.411   0.191  0.00  0.00     0.003 A 
ATOM      7  C6  UNL d   1       1.150   0.539  -0.248  0.00  0.00    -0.001 A 
ENDROOT
TORSDOF 0
ENDMDL
