MODEL 1
REMARK minimizedAffinity 5.29623461
REMARK minimizedRMSD -1
REMARK  1 active torsions:
REMARK  status: ('A' for Active; 'I' for Inactive)
REMARK    1  A    between atoms: C1_2  and  C2_3 
ROOT
ATOM      1  C2  UNL d   1       0.050  -4.398  -2.891  0.00  0.00    -0.077 A 
ATOM      2  C3  UNL d   1       1.087  -4.007  -3.751  0.00  0.00     0.002 A 
ATOM      3  C4  UNL d   1       1.680  -2.750  -3.616  0.00  0.00     0.002 A 
ATOM      4  C5  UNL d   1       1.247  -1.877  -2.621  0.00  0.00    -0.004 A 
ATOM      5  C6  UNL d   1       0.216  -2.255  -1.763  0.00  0.00     0.002 A 
ATOM      6  C7  UNL d   1      -0.380  -3.510  -1.897  0.00  0.00     0.002 A 
ENDROOT
BRANCH   1   7
ATOM      7  C1  UNL d   1      -0.558  -5.771  -3.004  0.00  0.00     0.055 C 
ATOM      8  C   UNL d   1      -1.158  -6.000  -4.383  0.00  0.00     0.019 C 
ENDBRANCH   1   7
TORSDOF 1
ENDMDL
