MODEL 1
REMARK minimizedAffinity 6.29038239
REMARK minimizedRMSD -1
REMARK  1 active torsions:
REMARK  status: ('A' for Active; 'I' for Inactive)
REMARK    1  A    between atoms: C1_2  and  C2_3 
ROOT
ATOM      1  C2  UNL d   1       3.349   4.929  -2.732  0.00  0.00    -0.077 A 
ATOM      2  C3  UNL d   1       4.379   5.782  -2.312  0.00  0.00     0.002 A 
ATOM      3  C4  UNL d   1       5.697   5.547  -2.710  0.00  0.00     0.002 A 
ATOM      4  C5  UNL d   1       5.995   4.463  -3.533  0.00  0.00    -0.004 A 
ATOM      5  C6  UNL d   1       4.977   3.608  -3.954  0.00  0.00     0.002 A 
ATOM      6  C7  UNL d   1       3.660   3.840  -3.556  0.00  0.00     0.002 A 
ENDROOT
BRANCH   1   7
ATOM      7  C1  UNL d   1       1.920   5.209  -2.344  0.00  0.00     0.055 C 
ATOM      8  C   UNL d   1       1.567   4.547  -1.019  0.00  0.00     0.019 C 
ENDBRANCH   1   7
TORSDOF 1
ENDMDL
