MODEL 1
REMARK minimizedAffinity 5.24603033
REMARK minimizedRMSD -1
REMARK  1 active torsions:
REMARK  status: ('A' for Active; 'I' for Inactive)
REMARK    1  A    between atoms: C1_2  and  C2_3 
ROOT
ATOM      1  C2  UNL d   1       3.413  -1.988   3.472  0.00  0.00    -0.077 A 
ATOM      2  C3  UNL d   1       3.081  -1.128   4.528  0.00  0.00     0.002 A 
ATOM      3  C4  UNL d   1       3.776  -1.192   5.737  0.00  0.00     0.002 A 
ATOM      4  C5  UNL d   1       4.810  -2.111   5.900  0.00  0.00    -0.004 A 
ATOM      5  C6  UNL d   1       5.147  -2.973   4.856  0.00  0.00     0.002 A 
ATOM      6  C7  UNL d   1       4.452  -2.911   3.647  0.00  0.00     0.002 A 
ENDROOT
BRANCH   1   7
ATOM      7  C1  UNL d   1       2.697  -1.887   2.151  0.00  0.00     0.055 C 
ATOM      8  C   UNL d   1       3.473  -1.026   1.165  0.00  0.00     0.019 C 
ENDBRANCH   1   7
TORSDOF 1
ENDMDL
