MODEL 1
REMARK minimizedAffinity -1.46270621
REMARK minimizedRMSD -1
REMARK  1 active torsions:
REMARK  status: ('A' for Active; 'I' for Inactive)
REMARK    1  A    between atoms: C1_2  and  C2_3 
ROOT
ATOM      1  C2  UNL d   1       4.098  -3.115   3.529  0.00  0.00    -0.077 A 
ATOM      2  C3  UNL d   1       3.726  -2.284   4.596  0.00  0.00     0.002 A 
ATOM      3  C4  UNL d   1       4.379  -2.380   5.826  0.00  0.00     0.002 A 
ATOM      4  C5  UNL d   1       5.410  -3.302   6.000  0.00  0.00    -0.004 A 
ATOM      5  C6  UNL d   1       5.785  -4.134   4.946  0.00  0.00     0.002 A 
ATOM      6  C7  UNL d   1       5.132  -4.040   3.716  0.00  0.00     0.002 A 
ENDROOT
BRANCH   1   7
ATOM      7  C1  UNL d   1       3.428  -2.979   2.187  0.00  0.00     0.055 C 
ATOM      8  C   UNL d   1       4.450  -2.920   1.061  0.00  0.00     0.019 C 
ENDBRANCH   1   7
TORSDOF 1
ENDMDL
