MODEL 1
REMARK minimizedAffinity 12.2608366
REMARK minimizedRMSD -1
REMARK  1 active torsions:
REMARK  status: ('A' for Active; 'I' for Inactive)
REMARK    1  A    between atoms: C1_2  and  C2_3 
ROOT
ATOM      1  C2  UNL d   1      -3.236  -5.930  -5.257  0.00  0.00    -0.077 A 
ATOM      2  C3  UNL d   1      -4.427  -5.912  -5.996  0.00  0.00     0.002 A 
ATOM      3  C4  UNL d   1      -5.662  -5.912  -5.345  0.00  0.00     0.002 A 
ATOM      4  C5  UNL d   1      -5.718  -5.925  -3.953  0.00  0.00    -0.004 A 
ATOM      5  C6  UNL d   1      -4.539  -5.945  -3.209  0.00  0.00     0.002 A 
ATOM      6  C7  UNL d   1      -3.303  -5.947  -3.858  0.00  0.00     0.002 A 
ENDROOT
BRANCH   1   7
ATOM      7  C1  UNL d   1      -1.902  -5.881  -5.956  0.00  0.00     0.055 C 
ATOM      8  C   UNL d   1      -1.156  -4.594  -5.634  0.00  0.00     0.019 C 
ENDBRANCH   1   7
TORSDOF 1
ENDMDL
