MODEL 1
REMARK minimizedAffinity 3.07182121
REMARK minimizedRMSD -1
REMARK  1 active torsions:
REMARK  status: ('A' for Active; 'I' for Inactive)
REMARK    1  A    between atoms: C1_2  and  C2_3 
ROOT
ATOM      1  C2  UNL d   1       5.271  -3.137   5.999  0.00  0.00    -0.077 A 
ATOM      2  C3  UNL d   1       3.869  -3.100   5.998  0.00  0.00     0.002 A 
ATOM      3  C4  UNL d   1       3.195  -1.877   5.987  0.00  0.00     0.002 A 
ATOM      4  C5  UNL d   1       3.914  -0.684   5.975  0.00  0.00    -0.004 A 
ATOM      5  C6  UNL d   1       5.308  -0.710   5.978  0.00  0.00     0.002 A 
ATOM      6  C7  UNL d   1       5.983  -1.931   5.989  0.00  0.00     0.002 A 
ENDROOT
BRANCH   1   7
ATOM      7  C1  UNL d   1       5.999  -4.455   5.960  0.00  0.00     0.055 C 
ATOM      8  C   UNL d   1       5.028  -5.626   5.995  0.00  0.00     0.019 C 
ENDBRANCH   1   7
TORSDOF 1
ENDMDL
