MODEL 1
REMARK minimizedAffinity 3.27158284
REMARK minimizedRMSD -1
REMARK  1 active torsions:
REMARK  status: ('A' for Active; 'I' for Inactive)
REMARK    1  A    between atoms: C1_2  and  C2_3 
ROOT
ATOM      1  C2  UNL d   1      -0.046  -3.166  -3.282  0.00  0.00    -0.077 A 
ATOM      2  C3  UNL d   1       0.057  -4.484  -3.749  0.00  0.00     0.002 A 
ATOM      3  C4  UNL d   1      -0.138  -4.771  -5.101  0.00  0.00     0.002 A 
ATOM      4  C5  UNL d   1      -0.431  -3.746  -5.998  0.00  0.00    -0.004 A 
ATOM      5  C6  UNL d   1      -0.537  -2.432  -5.543  0.00  0.00     0.002 A 
ATOM      6  C7  UNL d   1      -0.345  -2.143  -4.191  0.00  0.00     0.002 A 
ENDROOT
BRANCH   1   7
ATOM      7  C1  UNL d   1       0.212  -2.847  -1.832  0.00  0.00     0.055 C 
ATOM      8  C   UNL d   1      -0.707  -1.740  -1.337  0.00  0.00     0.019 C 
ENDBRANCH   1   7
TORSDOF 1
ENDMDL
