MODEL 1
REMARK minimizedAffinity 1.38015676
REMARK minimizedRMSD -1
REMARK  1 active torsions:
REMARK  status: ('A' for Active; 'I' for Inactive)
REMARK    1  A    between atoms: C1_2  and  C2_3 
ROOT
ATOM      1  C2  UNL d   1       5.320   5.301  -2.497  0.00  0.00    -0.077 A 
ATOM      2  C3  UNL d   1       5.994   4.311  -3.226  0.00  0.00     0.002 A 
ATOM      3  C4  UNL d   1       5.380   3.698  -4.320  0.00  0.00     0.002 A 
ATOM      4  C5  UNL d   1       4.092   4.072  -4.697  0.00  0.00    -0.004 A 
ATOM      5  C6  UNL d   1       3.413   5.054  -3.977  0.00  0.00     0.002 A 
ATOM      6  C7  UNL d   1       4.025   5.667  -2.883  0.00  0.00     0.002 A 
ENDROOT
BRANCH   1   7
ATOM      7  C1  UNL d   1       6.000   5.998  -1.347  0.00  0.00     0.055 C 
ATOM      8  C   UNL d   1       5.999   5.131  -0.096  0.00  0.00     0.019 C 
ENDBRANCH   1   7
TORSDOF 1
ENDMDL
