MODEL 1
REMARK minimizedAffinity 3.41321611
REMARK minimizedRMSD -1
REMARK  1 active torsions:
REMARK  status: ('A' for Active; 'I' for Inactive)
REMARK    1  A    between atoms: C1_2  and  C2_3 
ROOT
ATOM      1  C2  UNL d   1      -0.554  -4.613  -3.995  0.00  0.00    -0.077 A 
ATOM      2  C3  UNL d   1      -0.311  -4.382  -2.633  0.00  0.00     0.002 A 
ATOM      3  C4  UNL d   1       0.103  -3.124  -2.193  0.00  0.00     0.002 A 
ATOM      4  C5  UNL d   1       0.273  -2.085  -3.106  0.00  0.00    -0.004 A 
ATOM      5  C6  UNL d   1       0.036  -2.305  -4.462  0.00  0.00     0.002 A 
ATOM      6  C7  UNL d   1      -0.376  -3.563  -4.905  0.00  0.00     0.002 A 
ENDROOT
BRANCH   1   7
ATOM      7  C1  UNL d   1      -1.047  -5.956  -4.465  0.00  0.00     0.055 C 
ATOM      8  C   UNL d   1      -1.178  -5.998  -5.981  0.00  0.00     0.019 C 
ENDBRANCH   1   7
TORSDOF 1
ENDMDL
