MODEL 1
REMARK minimizedAffinity 1.27085876
REMARK minimizedRMSD -1
REMARK  1 active torsions:
REMARK  status: ('A' for Active; 'I' for Inactive)
REMARK    1  A    between atoms: C1_2  and  C2_3 
ROOT
ATOM      1  C2  UNL d   1      -1.889  -1.528   1.426  0.00  0.00    -0.077 A 
ATOM      2  C3  UNL d   1      -0.779  -0.991   0.758  0.00  0.00     0.002 A 
ATOM      3  C4  UNL d   1      -0.494  -1.368  -0.556  0.00  0.00     0.002 A 
ATOM      4  C5  UNL d   1      -1.316  -2.280  -1.214  0.00  0.00    -0.004 A 
ATOM      5  C6  UNL d   1      -2.421  -2.821  -0.558  0.00  0.00     0.002 A 
ATOM      6  C7  UNL d   1      -2.707  -2.446   0.755  0.00  0.00     0.002 A 
ENDROOT
BRANCH   1   7
ATOM      7  C1  UNL d   1      -2.226  -1.085   2.825  0.00  0.00     0.055 C 
ATOM      8  C   UNL d   1      -1.915   0.391   3.029  0.00  0.00     0.019 C 
ENDBRANCH   1   7
TORSDOF 1
ENDMDL
