MODEL 1
REMARK minimizedAffinity 3.19210625
REMARK minimizedRMSD -1
REMARK  1 active torsions:
REMARK  status: ('A' for Active; 'I' for Inactive)
REMARK    1  A    between atoms: C1_2  and  C2_3 
ROOT
ATOM      1  C2  UNL d   1       1.417  -2.611  -2.878  0.00  0.00    -0.077 A 
ATOM      2  C3  UNL d   1       0.935  -1.855  -1.800  0.00  0.00     0.002 A 
ATOM      3  C4  UNL d   1      -0.387  -1.997  -1.373  0.00  0.00     0.002 A 
ATOM      4  C5  UNL d   1      -1.236  -2.896  -2.015  0.00  0.00    -0.004 A 
ATOM      5  C6  UNL d   1      -0.766  -3.651  -3.089  0.00  0.00     0.002 A 
ATOM      6  C7  UNL d   1       0.554  -3.510  -3.518  0.00  0.00     0.002 A 
ENDROOT
BRANCH   1   7
ATOM      7  C1  UNL d   1       2.856  -2.496  -3.308  0.00  0.00     0.055 C 
ATOM      8  C   UNL d   1       3.785  -2.376  -2.109  0.00  0.00     0.019 C 
ENDBRANCH   1   7
TORSDOF 1
ENDMDL
