MODEL 1
REMARK minimizedAffinity 3.51246405
REMARK minimizedRMSD -1
REMARK  1 active torsions:
REMARK  status: ('A' for Active; 'I' for Inactive)
REMARK    1  A    between atoms: C1_2  and  C2_3 
ROOT
ATOM      1  C2  UNL d   1       1.161  -1.981  -1.874  0.00  0.00    -0.077 A 
ATOM      2  C3  UNL d   1       1.818  -1.881  -0.640  0.00  0.00     0.002 A 
ATOM      3  C4  UNL d   1       3.213  -1.899  -0.579  0.00  0.00     0.002 A 
ATOM      4  C5  UNL d   1       3.962  -2.013  -1.748  0.00  0.00    -0.004 A 
ATOM      5  C6  UNL d   1       3.317  -2.114  -2.980  0.00  0.00     0.002 A 
ATOM      6  C7  UNL d   1       1.923  -2.097  -3.043  0.00  0.00     0.002 A 
ENDROOT
BRANCH   1   7
ATOM      7  C1  UNL d   1      -0.342  -1.911  -1.946  0.00  0.00     0.055 C 
ATOM      8  C   UNL d   1      -0.988  -2.941  -1.031  0.00  0.00     0.019 C 
ENDBRANCH   1   7
TORSDOF 1
ENDMDL
