MODEL 1
REMARK minimizedAffinity 4.57023907
REMARK minimizedRMSD -1
REMARK  1 active torsions:
REMARK  status: ('A' for Active; 'I' for Inactive)
REMARK    1  A    between atoms: C1_2  and  C2_3 
ROOT
ATOM      1  C2  UNL d   1       1.532  -2.178  -2.799  0.00  0.00    -0.077 A 
ATOM      2  C3  UNL d   1       1.026  -1.516  -1.671  0.00  0.00     0.002 A 
ATOM      3  C4  UNL d   1      -0.241  -1.832  -1.176  0.00  0.00     0.002 A 
ATOM      4  C5  UNL d   1      -1.010  -2.813  -1.800  0.00  0.00    -0.004 A 
ATOM      5  C6  UNL d   1      -0.516  -3.475  -2.923  0.00  0.00     0.002 A 
ATOM      6  C7  UNL d   1       0.749  -3.159  -3.420  0.00  0.00     0.002 A 
ENDROOT
BRANCH   1   7
ATOM      7  C1  UNL d   1       2.918  -1.873  -3.304  0.00  0.00     0.055 C 
ATOM      8  C   UNL d   1       3.876  -1.589  -2.157  0.00  0.00     0.019 C 
ENDBRANCH   1   7
TORSDOF 1
ENDMDL
