MODEL 1
REMARK minimizedAffinity 4.06555223
REMARK minimizedRMSD -1
REMARK  1 active torsions:
REMARK  status: ('A' for Active; 'I' for Inactive)
REMARK    1  A    between atoms: C1_2  and  C2_3 
ROOT
ATOM      1  C2  UNL d   1      -1.148  -2.324  -0.968  0.00  0.00    -0.077 A 
ATOM      2  C3  UNL d   1      -2.548  -2.312  -1.050  0.00  0.00     0.002 A 
ATOM      3  C4  UNL d   1      -3.323  -2.654   0.060  0.00  0.00     0.002 A 
ATOM      4  C5  UNL d   1      -2.708  -3.004   1.260  0.00  0.00    -0.004 A 
ATOM      5  C6  UNL d   1      -1.317  -3.021   1.351  0.00  0.00     0.002 A 
ATOM      6  C7  UNL d   1      -0.540  -2.681   0.243  0.00  0.00     0.002 A 
ENDROOT
BRANCH   1   7
ATOM      7  C1  UNL d   1      -0.311  -1.909  -2.149  0.00  0.00     0.055 C 
ATOM      8  C   UNL d   1       0.524  -3.069  -2.671  0.00  0.00     0.019 C 
ENDBRANCH   1   7
TORSDOF 1
ENDMDL
