MODEL 1
REMARK minimizedAffinity -3.98730111
REMARK minimizedRMSD -1
REMARK  0 active torsions:
REMARK  status: ('A' for Active; 'I' for Inactive)
ROOT
ATOM      1  C   UNL d   1      -0.372  -2.679   0.346  0.00  0.00     0.023 A 
ATOM      2  C1  UNL d   1      -0.957  -1.738   1.195  0.00  0.00     0.003 A 
ATOM      3  C2  UNL d   1      -0.785  -0.374   0.952  0.00  0.00     0.048 A 
ATOM      4  C3  UNL d   1      -0.028   0.043  -0.143  0.00  0.00     0.023 A 
ATOM      5  C4  UNL d   1       0.559  -0.894  -0.995  0.00  0.00     0.048 A 
ATOM      6  C5  UNL d   1       0.385  -2.257  -0.747  0.00  0.00     0.003 A 
ATOM      7  I   UNL d   1       0.229   2.073  -0.507  0.00  0.00    -0.146 I 
ENDROOT
TORSDOF 0
ENDMDL
