MODEL 1
REMARK minimizedAffinity -1.57866752
REMARK minimizedRMSD -1
REMARK  0 active torsions:
REMARK  status: ('A' for Active; 'I' for Inactive)
ROOT
ATOM      1  C   UNL d   1       0.339  -2.356  -0.869  0.00  0.00     0.023 A 
ATOM      2  C1  UNL d   1       0.077  -1.976   0.447  0.00  0.00     0.003 A 
ATOM      3  C2  UNL d   1       0.056  -0.624   0.794  0.00  0.00     0.048 A 
ATOM      4  C3  UNL d   1       0.296   0.344  -0.182  0.00  0.00     0.023 A 
ATOM      5  C4  UNL d   1       0.558  -0.032  -1.500  0.00  0.00     0.048 A 
ATOM      6  C5  UNL d   1       0.579  -1.386  -1.842  0.00  0.00     0.003 A 
ATOM      7  I   UNL d   1       0.265   2.357   0.331  0.00  0.00    -0.146 I 
ENDROOT
TORSDOF 0
ENDMDL
