MODEL 1
REMARK minimizedAffinity -4.11901617
REMARK minimizedRMSD -1
REMARK  0 active torsions:
REMARK  status: ('A' for Active; 'I' for Inactive)
ROOT
ATOM      1  C   UNL d   1      -0.216  -3.293   0.147  0.00  0.00     0.023 A 
ATOM      2  C1  UNL d   1       0.184  -2.772  -1.083  0.00  0.00     0.003 A 
ATOM      3  C2  UNL d   1       0.114  -1.397  -1.317  0.00  0.00     0.048 A 
ATOM      4  C3  UNL d   1      -0.357  -0.549  -0.316  0.00  0.00     0.023 A 
ATOM      5  C4  UNL d   1      -0.758  -1.065   0.917  0.00  0.00     0.048 A 
ATOM      6  C5  UNL d   1      -0.687  -2.441   1.146  0.00  0.00     0.003 A 
ATOM      7  I   UNL d   1      -0.463   1.498  -0.662  0.00  0.00    -0.146 I 
ENDROOT
TORSDOF 0
ENDMDL
