MODEL 1
REMARK minimizedAffinity 1.16564143
REMARK minimizedRMSD -1
REMARK  0 active torsions:
REMARK  status: ('A' for Active; 'I' for Inactive)
ROOT
ATOM      1  C   UNL d   1       0.950  -2.000  -0.054  0.00  0.00     0.023 A 
ATOM      2  C1  UNL d   1       0.674  -3.364   0.036  0.00  0.00     0.003 A 
ATOM      3  C2  UNL d   1      -0.649  -3.808   0.088  0.00  0.00     0.048 A 
ATOM      4  C3  UNL d   1      -1.691  -2.883   0.049  0.00  0.00     0.023 A 
ATOM      5  C4  UNL d   1      -1.420  -1.516  -0.042  0.00  0.00     0.048 A 
ATOM      6  C5  UNL d   1      -0.095  -1.077  -0.093  0.00  0.00     0.003 A 
ATOM      7  I   UNL d   1      -3.661  -3.541   0.127  0.00  0.00    -0.146 I 
ENDROOT
TORSDOF 0
ENDMDL
