MODEL 1
REMARK minimizedAffinity 0.225221172
REMARK minimizedRMSD -1
REMARK  0 active torsions:
REMARK  status: ('A' for Active; 'I' for Inactive)
ROOT
ATOM      1  C   UNL d   1       0.353  -3.470  -0.025  0.00  0.00     0.023 A 
ATOM      2  C1  UNL d   1       0.969  -2.218  -0.013  0.00  0.00     0.003 A 
ATOM      3  C2  UNL d   1       0.236  -1.081   0.334  0.00  0.00     0.048 A 
ATOM      4  C3  UNL d   1      -1.111  -1.203   0.670  0.00  0.00     0.023 A 
ATOM      5  C4  UNL d   1      -1.732  -2.454   0.661  0.00  0.00     0.048 A 
ATOM      6  C5  UNL d   1      -0.995  -3.588   0.312  0.00  0.00     0.003 A 
ATOM      7  I   UNL d   1      -2.204   0.487   1.188  0.00  0.00    -0.146 I 
ENDROOT
TORSDOF 0
ENDMDL
