MODEL 1
REMARK minimizedAffinity -2.32552505
REMARK minimizedRMSD -1
REMARK  0 active torsions:
REMARK  status: ('A' for Active; 'I' for Inactive)
ROOT
ATOM      1  C   UNL d   1      -0.157  -3.409   0.634  0.00  0.00     0.023 A 
ATOM      2  C1  UNL d   1      -1.172  -2.533   1.019  0.00  0.00     0.003 A 
ATOM      3  C2  UNL d   1      -1.068  -1.171   0.729  0.00  0.00     0.048 A 
ATOM      4  C3  UNL d   1       0.054  -0.691   0.053  0.00  0.00     0.023 A 
ATOM      5  C4  UNL d   1       1.072  -1.564  -0.334  0.00  0.00     0.048 A 
ATOM      6  C5  UNL d   1       0.963  -2.925  -0.041  0.00  0.00     0.003 A 
ATOM      7  I   UNL d   1       0.211   1.335  -0.379  0.00  0.00    -0.146 I 
ENDROOT
TORSDOF 0
ENDMDL
