MODEL 1
REMARK minimizedAffinity -3.92582488
REMARK minimizedRMSD -1
REMARK  0 active torsions:
REMARK  status: ('A' for Active; 'I' for Inactive)
ROOT
ATOM      1  C   UNL d   1      -0.047  -2.791  -0.004  0.00  0.00     0.023 A 
ATOM      2  C1  UNL d   1       0.529  -2.084  -1.059  0.00  0.00     0.003 A 
ATOM      3  C2  UNL d   1       0.679  -0.698  -0.973  0.00  0.00     0.048 A 
ATOM      4  C3  UNL d   1       0.253  -0.026   0.172  0.00  0.00     0.023 A 
ATOM      5  C4  UNL d   1      -0.324  -0.730   1.231  0.00  0.00     0.048 A 
ATOM      6  C5  UNL d   1      -0.473  -2.115   1.140  0.00  0.00     0.003 A 
ATOM      7  I   UNL d   1       0.476   2.036   0.303  0.00  0.00    -0.146 I 
ENDROOT
TORSDOF 0
ENDMDL
