MODEL 1
REMARK minimizedAffinity -0.148243889
REMARK minimizedRMSD -1
REMARK  0 active torsions:
REMARK  status: ('A' for Active; 'I' for Inactive)
ROOT
ATOM      1  C   UNL d   1      -0.301  -1.999  -0.980  0.00  0.00     0.023 A 
ATOM      2  C1  UNL d   1       0.280  -1.079  -1.853  0.00  0.00     0.003 A 
ATOM      3  C2  UNL d   1       0.679   0.174  -1.384  0.00  0.00     0.048 A 
ATOM      4  C3  UNL d   1       0.495   0.501  -0.041  0.00  0.00     0.023 A 
ATOM      5  C4  UNL d   1      -0.085  -0.417   0.837  0.00  0.00     0.048 A 
ATOM      6  C5  UNL d   1      -0.483  -1.669   0.363  0.00  0.00     0.003 A 
ATOM      7  I   UNL d   1       1.089   2.365   0.660  0.00  0.00    -0.146 I 
ENDROOT
TORSDOF 0
ENDMDL
