MODEL 1
REMARK minimizedAffinity -2.99091792
REMARK minimizedRMSD -1
REMARK  0 active torsions:
REMARK  status: ('A' for Active; 'I' for Inactive)
ROOT
ATOM      1  C   UNL d   1       0.118  -3.492  -0.397  0.00  0.00     0.023 A 
ATOM      2  C1  UNL d   1       0.074  -3.057   0.927  0.00  0.00     0.003 A 
ATOM      3  C2  UNL d   1       0.099  -1.691   1.215  0.00  0.00     0.048 A 
ATOM      4  C3  UNL d   1       0.168  -0.765   0.174  0.00  0.00     0.023 A 
ATOM      5  C4  UNL d   1       0.211  -1.197  -1.152  0.00  0.00     0.048 A 
ATOM      6  C5  UNL d   1       0.186  -2.563  -1.436  0.00  0.00     0.003 A 
ATOM      7  I   UNL d   1       0.206   1.268   0.601  0.00  0.00    -0.146 I 
ENDROOT
TORSDOF 0
ENDMDL
