MODEL 1
REMARK minimizedAffinity -4.83315849
REMARK minimizedRMSD -1
REMARK  0 active torsions:
REMARK  status: ('A' for Active; 'I' for Inactive)
ROOT
ATOM      1  C   UNL d   1       0.379  -3.814  -0.374  0.00  0.00     0.023 A 
ATOM      2  C1  UNL d   1       0.202  -3.329   0.921  0.00  0.00     0.003 A 
ATOM      3  C2  UNL d   1      -0.014  -1.966   1.134  0.00  0.00     0.048 A 
ATOM      4  C3  UNL d   1      -0.053  -1.094   0.047  0.00  0.00     0.023 A 
ATOM      5  C4  UNL d   1       0.122  -1.575  -1.252  0.00  0.00     0.048 A 
ATOM      6  C5  UNL d   1       0.339  -2.939  -1.459  0.00  0.00     0.003 A 
ATOM      7  I   UNL d   1      -0.374   0.935   0.361  0.00  0.00    -0.146 I 
ENDROOT
TORSDOF 0
ENDMDL
