MODEL 1
REMARK minimizedAffinity -4.2606926
REMARK minimizedRMSD -1
REMARK  0 active torsions:
REMARK  status: ('A' for Active; 'I' for Inactive)
ROOT
ATOM      1  C   UNL d   1      -0.460  -2.684   0.871  0.00  0.00     0.023 A 
ATOM      2  C1  UNL d   1      -1.377  -1.682   1.191  0.00  0.00     0.003 A 
ATOM      3  C2  UNL d   1      -1.096  -0.351   0.879  0.00  0.00     0.048 A 
ATOM      4  C3  UNL d   1       0.104  -0.027   0.247  0.00  0.00     0.023 A 
ATOM      5  C4  UNL d   1       1.025  -1.026  -0.075  0.00  0.00     0.048 A 
ATOM      6  C5  UNL d   1       0.740  -2.356   0.239  0.00  0.00     0.003 A 
ATOM      7  I   UNL d   1       0.525   1.954  -0.218  0.00  0.00    -0.146 I 
ENDROOT
TORSDOF 0
ENDMDL
