MODEL 1
REMARK minimizedAffinity -4.92137909
REMARK minimizedRMSD -1
REMARK  0 active torsions:
REMARK  status: ('A' for Active; 'I' for Inactive)
ROOT
ATOM      1  C   UNL d   1      -0.566  -3.168   0.020  0.00  0.00     0.023 A 
ATOM      2  C1  UNL d   1       0.308  -2.716  -0.969  0.00  0.00     0.003 A 
ATOM      3  C2  UNL d   1       0.596  -1.355  -1.079  0.00  0.00     0.048 A 
ATOM      4  C3  UNL d   1       0.008  -0.450  -0.196  0.00  0.00     0.023 A 
ATOM      5  C4  UNL d   1      -0.866  -0.898   0.796  0.00  0.00     0.048 A 
ATOM      6  C5  UNL d   1      -1.152  -2.260   0.901  0.00  0.00     0.003 A 
ATOM      7  I   UNL d   1       0.436   1.577  -0.357  0.00  0.00    -0.146 I 
ENDROOT
TORSDOF 0
ENDMDL
