MODEL 1
REMARK minimizedAffinity -2.90300393
REMARK minimizedRMSD -1
REMARK  0 active torsions:
REMARK  status: ('A' for Active; 'I' for Inactive)
ROOT
ATOM      1  C   UNL d   1      -0.009  -2.042  -2.849  0.00  0.00     0.023 A 
ATOM      2  C1  UNL d   1       0.183  -0.669  -2.690  0.00  0.00     0.003 A 
ATOM      3  C2  UNL d   1      -0.115  -0.058  -1.470  0.00  0.00     0.048 A 
ATOM      4  C3  UNL d   1      -0.604  -0.825  -0.414  0.00  0.00     0.023 A 
ATOM      5  C4  UNL d   1      -0.797  -2.199  -0.568  0.00  0.00     0.048 A 
ATOM      6  C5  UNL d   1      -0.499  -2.806  -1.790  0.00  0.00     0.003 A 
ATOM      7  I   UNL d   1      -1.048   0.082   1.403  0.00  0.00    -0.146 I 
ENDROOT
TORSDOF 0
ENDMDL
