MODEL 1
REMARK minimizedAffinity -4.03484535
REMARK minimizedRMSD -1
REMARK  0 active torsions:
REMARK  status: ('A' for Active; 'I' for Inactive)
ROOT
ATOM      1  C   UNL d   1      -0.415  -3.178  -1.941  0.00  0.00     0.023 A 
ATOM      2  C1  UNL d   1       0.028  -1.961  -2.460  0.00  0.00     0.003 A 
ATOM      3  C2  UNL d   1      -0.007  -0.810  -1.671  0.00  0.00     0.048 A 
ATOM      4  C3  UNL d   1      -0.487  -0.881  -0.364  0.00  0.00     0.023 A 
ATOM      5  C4  UNL d   1      -0.931  -2.096   0.160  0.00  0.00     0.048 A 
ATOM      6  C5  UNL d   1      -0.894  -3.245  -0.632  0.00  0.00     0.003 A 
ATOM      7  I   UNL d   1      -0.541   0.832   0.812  0.00  0.00    -0.146 I 
ENDROOT
TORSDOF 0
ENDMDL
