MODEL 1
REMARK minimizedAffinity -3.40941119
REMARK minimizedRMSD -1
REMARK  0 active torsions:
REMARK  status: ('A' for Active; 'I' for Inactive)
ROOT
ATOM      1  C   UNL d   1      -0.889  -2.618   0.395  0.00  0.00     0.023 A 
ATOM      2  C1  UNL d   1      -1.590  -1.569   0.990  0.00  0.00     0.003 A 
ATOM      3  C2  UNL d   1      -1.145  -0.254   0.838  0.00  0.00     0.048 A 
ATOM      4  C3  UNL d   1       0.003   0.005   0.089  0.00  0.00     0.023 A 
ATOM      5  C4  UNL d   1       0.707  -1.042  -0.509  0.00  0.00     0.048 A 
ATOM      6  C5  UNL d   1       0.259  -2.354  -0.353  0.00  0.00     0.003 A 
ATOM      7  I   UNL d   1       0.668   1.960  -0.139  0.00  0.00    -0.146 I 
ENDROOT
TORSDOF 0
ENDMDL
