MODEL 1
REMARK minimizedAffinity -2.13002849
REMARK minimizedRMSD -1
REMARK  1 active torsions:
REMARK  status: ('A' for Active; 'I' for Inactive)
REMARK    1  A    between atoms: N_2  and  C1_3 
ROOT
ATOM      1  C1  UNL d   1      -2.228   0.120   1.458  0.00  0.00     0.143 A 
ATOM      2  C2  UNL d   1      -3.397  -0.372   0.869  0.00  0.00    -0.057 A 
ATOM      3  C3  UNL d   1      -4.658   0.108   1.244  0.00  0.00     0.033 A 
ATOM      4  C4  UNL d   1      -4.773   1.072   2.241  0.00  0.00    -0.042 A 
ATOM      5  C5  UNL d   1      -3.625   1.558   2.858  0.00  0.00     0.033 A 
ATOM      6  C6  UNL d   1      -2.369   1.079   2.473  0.00  0.00    -0.057 A 
ENDROOT
BRANCH   1   7
ATOM      7  N   UNL d   1      -0.953  -0.387   1.197  0.00  0.00    -0.732 N 
ATOM      8  C   UNL d   1      -0.301  -0.128  -0.069  0.00  0.00     0.284 C 
ATOM      9  H3  UNL d   1      -0.336  -0.320   2.004  0.00  0.00     0.395 HD
ENDBRANCH   1   7
TORSDOF 1
ENDMDL
