MODEL 1
REMARK minimizedAffinity -1.64888334
REMARK minimizedRMSD -1
REMARK  1 active torsions:
REMARK  status: ('A' for Active; 'I' for Inactive)
REMARK    1  A    between atoms: N_2  and  C1_3 
ROOT
ATOM      1  C1  UNL d   1      -3.201   4.121  -5.908  0.00  0.00     0.143 A 
ATOM      2  C2  UNL d   1      -3.747   5.407  -5.981  0.00  0.00    -0.057 A 
ATOM      3  C3  UNL d   1      -5.133   5.608  -5.988  0.00  0.00     0.033 A 
ATOM      4  C4  UNL d   1      -6.000   4.521  -5.951  0.00  0.00    -0.042 A 
ATOM      5  C5  UNL d   1      -5.479   3.233  -5.903  0.00  0.00     0.033 A 
ATOM      6  C6  UNL d   1      -4.095   3.039  -5.890  0.00  0.00    -0.057 A 
ENDROOT
BRANCH   1   7
ATOM      7  N   UNL d   1      -1.834   3.851  -5.998  0.00  0.00    -0.732 N 
ATOM      8  C   UNL d   1      -1.281   2.645  -5.418  0.00  0.00     0.284 C 
ATOM      9  H3  UNL d   1      -1.450   4.087  -6.910  0.00  0.00     0.395 HD
ENDBRANCH   1   7
TORSDOF 1
ENDMDL
