MODEL 1
REMARK minimizedAffinity -2.41705251
REMARK minimizedRMSD -1
REMARK  1 active torsions:
REMARK  status: ('A' for Active; 'I' for Inactive)
REMARK    1  A    between atoms: N_2  and  C1_3 
ROOT
ATOM      1  C1  UNL d   1      -0.867   0.611   3.059  0.00  0.00     0.143 A 
ATOM      2  C2  UNL d   1      -1.212  -0.098   1.904  0.00  0.00    -0.057 A 
ATOM      3  C3  UNL d   1      -2.507  -0.035   1.374  0.00  0.00     0.033 A 
ATOM      4  C4  UNL d   1      -3.489   0.717   2.009  0.00  0.00    -0.042 A 
ATOM      5  C5  UNL d   1      -3.175   1.410   3.172  0.00  0.00     0.033 A 
ATOM      6  C6  UNL d   1      -1.879   1.349   3.693  0.00  0.00    -0.057 A 
ENDROOT
BRANCH   1   7
ATOM      7  N   UNL d   1       0.376   0.512   3.690  0.00  0.00    -0.732 N 
ATOM      8  C   UNL d   1       1.451   1.418   3.349  0.00  0.00     0.284 C 
ATOM      9  H3  UNL d   1       0.291   0.324   4.687  0.00  0.00     0.395 HD
ENDBRANCH   1   7
TORSDOF 1
ENDMDL
