MODEL 1
REMARK minimizedAffinity 0.465370953
REMARK minimizedRMSD -1
REMARK  1 active torsions:
REMARK  status: ('A' for Active; 'I' for Inactive)
REMARK    1  A    between atoms: N_2  and  C1_3 
ROOT
ATOM      1  C1  UNL d   1       0.782   1.049   1.297  0.00  0.00     0.143 A 
ATOM      2  C2  UNL d   1       1.584   1.833   0.462  0.00  0.00    -0.057 A 
ATOM      3  C3  UNL d   1       1.611   1.626  -0.923  0.00  0.00     0.033 A 
ATOM      4  C4  UNL d   1       0.856   0.608  -1.494  0.00  0.00    -0.042 A 
ATOM      5  C5  UNL d   1       0.070  -0.201  -0.680  0.00  0.00     0.033 A 
ATOM      6  C6  UNL d   1       0.042   0.016   0.701  0.00  0.00    -0.057 A 
ENDROOT
BRANCH   1   7
ATOM      7  N   UNL d   1       0.787   1.142   2.691  0.00  0.00    -0.732 N 
ATOM      8  C   UNL d   1       1.995   1.500   3.402  0.00  0.00     0.284 C 
ATOM      9  H3  UNL d   1      -0.055   1.583   3.054  0.00  0.00     0.395 HD
ENDBRANCH   1   7
TORSDOF 1
ENDMDL
