MODEL 1
REMARK minimizedAffinity -3.35761905
REMARK minimizedRMSD -1
REMARK  1 active torsions:
REMARK  status: ('A' for Active; 'I' for Inactive)
REMARK    1  A    between atoms: N_2  and  C1_3 
ROOT
ATOM      1  C1  UNL d   1      -1.737   0.136   2.069  0.00  0.00     0.143 A 
ATOM      2  C2  UNL d   1      -3.033  -0.220   1.680  0.00  0.00    -0.057 A 
ATOM      3  C3  UNL d   1      -4.155   0.413   2.229  0.00  0.00     0.033 A 
ATOM      4  C4  UNL d   1      -4.001   1.396   3.200  0.00  0.00    -0.042 A 
ATOM      5  C5  UNL d   1      -2.723   1.749   3.620  0.00  0.00     0.033 A 
ATOM      6  C6  UNL d   1      -1.607   1.118   3.063  0.00  0.00    -0.057 A 
ENDROOT
BRANCH   1   7
ATOM      7  N   UNL d   1      -0.586  -0.524   1.633  0.00  0.00    -0.732 N 
ATOM      8  C   UNL d   1      -0.134  -0.393   0.264  0.00  0.00     0.284 C 
ATOM      9  H3  UNL d   1       0.162  -0.495   2.322  0.00  0.00     0.395 HD
ENDBRANCH   1   7
TORSDOF 1
ENDMDL
