MODEL 1
REMARK minimizedAffinity -1.55460012
REMARK minimizedRMSD -1
REMARK  1 active torsions:
REMARK  status: ('A' for Active; 'I' for Inactive)
REMARK    1  A    between atoms: N_2  and  C1_3 
ROOT
ATOM      1  C1  UNL d   1      -3.954   0.934   2.116  0.00  0.00     0.143 A 
ATOM      2  C2  UNL d   1      -5.001   1.783   2.489  0.00  0.00    -0.057 A 
ATOM      3  C3  UNL d   1      -4.840   2.731   3.507  0.00  0.00     0.033 A 
ATOM      4  C4  UNL d   1      -3.633   2.827   4.191  0.00  0.00    -0.042 A 
ATOM      5  C5  UNL d   1      -2.586   1.976   3.855  0.00  0.00     0.033 A 
ATOM      6  C6  UNL d   1      -2.751   1.036   2.833  0.00  0.00    -0.057 A 
ENDROOT
BRANCH   1   7
ATOM      7  N   UNL d   1      -4.083  -0.096   1.181  0.00  0.00    -0.732 N 
ATOM      8  C   UNL d   1      -4.300  -1.460   1.611  0.00  0.00     0.284 C 
ATOM      9  H3  UNL d   1      -4.639   0.180   0.374  0.00  0.00     0.395 HD
ENDBRANCH   1   7
TORSDOF 1
ENDMDL
