MODEL 1
REMARK minimizedAffinity -4.52401686
REMARK minimizedRMSD -1
REMARK  1 active torsions:
REMARK  status: ('A' for Active; 'I' for Inactive)
REMARK    1  A    between atoms: N_2  and  C1_3 
ROOT
ATOM      1  C1  UNL d   1       0.103  -0.011   0.096  0.00  0.00     0.143 A 
ATOM      2  C2  UNL d   1       1.081   0.889  -0.339  0.00  0.00    -0.057 A 
ATOM      3  C3  UNL d   1       1.735   0.714  -1.565  0.00  0.00     0.033 A 
ATOM      4  C4  UNL d   1       1.441  -0.384  -2.366  0.00  0.00    -0.042 A 
ATOM      5  C5  UNL d   1       0.490  -1.305  -1.942  0.00  0.00     0.033 A 
ATOM      6  C6  UNL d   1      -0.165  -1.121  -0.720  0.00  0.00    -0.057 A 
ENDROOT
BRANCH   1   7
ATOM      7  N   UNL d   1      -0.512   0.055   1.349  0.00  0.00    -0.732 N 
ATOM      8  C   UNL d   1      -1.931   0.315   1.461  0.00  0.00     0.284 C 
ATOM      9  H3  UNL d   1      -0.168  -0.659   1.988  0.00  0.00     0.395 HD
ENDBRANCH   1   7
TORSDOF 1
ENDMDL
