MODEL 1
REMARK minimizedAffinity -0.921233475
REMARK minimizedRMSD -1
REMARK  1 active torsions:
REMARK  status: ('A' for Active; 'I' for Inactive)
REMARK    1  A    between atoms: N_2  and  C1_3 
ROOT
ATOM      1  C1  UNL d   1       1.205   0.754  -1.214  0.00  0.00     0.143 A 
ATOM      2  C2  UNL d   1       0.015   1.452  -1.440  0.00  0.00    -0.057 A 
ATOM      3  C3  UNL d   1      -1.203   1.002  -0.915  0.00  0.00     0.033 A 
ATOM      4  C4  UNL d   1      -1.255  -0.176  -0.177  0.00  0.00    -0.042 A 
ATOM      5  C5  UNL d   1      -0.088  -0.900   0.040  0.00  0.00     0.033 A 
ATOM      6  C6  UNL d   1       1.126  -0.441  -0.481  0.00  0.00    -0.057 A 
ENDROOT
BRANCH   1   7
ATOM      7  N   UNL d   1       2.431   1.097  -1.791  0.00  0.00    -0.732 N 
ATOM      8  C   UNL d   1       3.647   0.420  -1.395  0.00  0.00     0.284 C 
ATOM      9  H3  UNL d   1       2.355   1.266  -2.791  0.00  0.00     0.395 HD
ENDBRANCH   1   7
TORSDOF 1
ENDMDL
