MODEL 1
REMARK minimizedAffinity -1.42368078
REMARK minimizedRMSD -1
REMARK  1 active torsions:
REMARK  status: ('A' for Active; 'I' for Inactive)
REMARK    1  A    between atoms: N_2  and  C1_3 
ROOT
ATOM      1  C1  UNL d   1       0.559   0.309  -0.540  0.00  0.00     0.143 A 
ATOM      2  C2  UNL d   1       1.869   0.778  -0.693  0.00  0.00    -0.057 A 
ATOM      3  C3  UNL d   1       2.437   0.942  -1.962  0.00  0.00     0.033 A 
ATOM      4  C4  UNL d   1       1.713   0.612  -3.103  0.00  0.00    -0.042 A 
ATOM      5  C5  UNL d   1       0.419   0.121  -2.974  0.00  0.00     0.033 A 
ATOM      6  C6  UNL d   1      -0.146  -0.035  -1.704  0.00  0.00    -0.057 A 
ENDROOT
BRANCH   1   7
ATOM      7  N   UNL d   1      -0.028   0.031   0.697  0.00  0.00    -0.732 N 
ATOM      8  C   UNL d   1       0.471   0.651   1.905  0.00  0.00     0.284 C 
ATOM      9  H3  UNL d   1      -1.042  -0.018   0.643  0.00  0.00     0.395 HD
ENDBRANCH   1   7
TORSDOF 1
ENDMDL
