MODEL 1
REMARK minimizedAffinity -4.36687994
REMARK minimizedRMSD -1
REMARK  1 active torsions:
REMARK  status: ('A' for Active; 'I' for Inactive)
REMARK    1  A    between atoms: N_2  and  C1_3 
ROOT
ATOM      1  C1  UNL d   1      -0.237   0.236   0.853  0.00  0.00     0.143 A 
ATOM      2  C2  UNL d   1      -1.558   0.089   1.289  0.00  0.00    -0.057 A 
ATOM      3  C3  UNL d   1      -1.947   0.484   2.575  0.00  0.00     0.033 A 
ATOM      4  C4  UNL d   1      -1.011   1.010   3.460  0.00  0.00    -0.042 A 
ATOM      5  C5  UNL d   1       0.313   1.142   3.056  0.00  0.00     0.033 A 
ATOM      6  C6  UNL d   1       0.693   0.752   1.769  0.00  0.00    -0.057 A 
ENDROOT
BRANCH   1   7
ATOM      7  N   UNL d   1       0.232  -0.229  -0.378  0.00  0.00    -0.732 N 
ATOM      8  C   UNL d   1       0.726   0.696  -1.376  0.00  0.00     0.284 C 
ATOM      9  H3  UNL d   1       0.786  -1.077  -0.287  0.00  0.00     0.395 HD
ENDBRANCH   1   7
TORSDOF 1
ENDMDL
