MODEL 1
REMARK minimizedAffinity -1.06127584
REMARK minimizedRMSD -1
REMARK  1 active torsions:
REMARK  status: ('A' for Active; 'I' for Inactive)
REMARK    1  A    between atoms: N_2  and  C1_3 
ROOT
ATOM      1  C1  UNL d   1      -3.766  -2.841  -3.547  0.00  0.00     0.143 A 
ATOM      2  C2  UNL d   1      -4.108  -2.254  -4.770  0.00  0.00    -0.057 A 
ATOM      3  C3  UNL d   1      -3.738  -2.841  -5.986  0.00  0.00     0.033 A 
ATOM      4  C4  UNL d   1      -2.992  -4.015  -6.000  0.00  0.00    -0.042 A 
ATOM      5  C5  UNL d   1      -2.619  -4.603  -4.796  0.00  0.00     0.033 A 
ATOM      6  C6  UNL d   1      -2.997  -4.015  -3.585  0.00  0.00    -0.057 A 
ENDROOT
BRANCH   1   7
ATOM      7  N   UNL d   1      -4.019  -2.254  -2.305  0.00  0.00    -0.732 N 
ATOM      8  C   UNL d   1      -3.008  -2.255  -1.269  0.00  0.00     0.284 C 
ATOM      9  H3  UNL d   1      -4.530  -1.378  -2.386  0.00  0.00     0.395 HD
ENDBRANCH   1   7
TORSDOF 1
ENDMDL
