MODEL 1
REMARK minimizedAffinity -0.0705702081
REMARK minimizedRMSD -1
REMARK  1 active torsions:
REMARK  status: ('A' for Active; 'I' for Inactive)
REMARK    1  A    between atoms: N_2  and  C1_3 
ROOT
ATOM      1  C1  UNL d   1      -2.263   1.775   2.804  0.00  0.00     0.143 A 
ATOM      2  C2  UNL d   1      -1.542   1.745   1.605  0.00  0.00    -0.057 A 
ATOM      3  C3  UNL d   1      -0.334   1.045   1.502  0.00  0.00     0.033 A 
ATOM      4  C4  UNL d   1       0.191   0.383   2.607  0.00  0.00    -0.042 A 
ATOM      5  C5  UNL d   1      -0.496   0.420   3.815  0.00  0.00     0.033 A 
ATOM      6  C6  UNL d   1      -1.705   1.115   3.911  0.00  0.00    -0.057 A 
ENDROOT
BRANCH   1   7
ATOM      7  N   UNL d   1      -3.419   2.534   2.998  0.00  0.00    -0.732 N 
ATOM      8  C   UNL d   1      -4.055   2.590   4.296  0.00  0.00     0.284 C 
ATOM      9  H3  UNL d   1      -3.381   3.429   2.514  0.00  0.00     0.395 HD
ENDBRANCH   1   7
TORSDOF 1
ENDMDL
