MODEL 1
REMARK minimizedAffinity 3.60477519
REMARK minimizedRMSD -1
REMARK  1 active torsions:
REMARK  status: ('A' for Active; 'I' for Inactive)
REMARK    1  A    between atoms: N_2  and  C1_3 
ROOT
ATOM      1  C1  UNL d   1      -4.777   2.908  -5.638  0.00  0.00     0.143 A 
ATOM      2  C2  UNL d   1      -5.348   4.141  -5.973  0.00  0.00    -0.057 A 
ATOM      3  C3  UNL d   1      -4.582   5.313  -5.998  0.00  0.00     0.033 A 
ATOM      4  C4  UNL d   1      -3.234   5.277  -5.660  0.00  0.00    -0.042 A 
ATOM      5  C5  UNL d   1      -2.651   4.068  -5.299  0.00  0.00     0.033 A 
ATOM      6  C6  UNL d   1      -3.419   2.900  -5.283  0.00  0.00    -0.057 A 
ENDROOT
BRANCH   1   7
ATOM      7  N   UNL d   1      -5.507   1.725  -5.500  0.00  0.00    -0.732 N 
ATOM      8  C   UNL d   1      -5.262   0.835  -4.386  0.00  0.00     0.284 C 
ATOM      9  H3  UNL d   1      -6.491   1.847  -5.726  0.00  0.00     0.395 HD
ENDBRANCH   1   7
TORSDOF 1
ENDMDL
