MODEL 1
REMARK minimizedAffinity -3.63224149
REMARK minimizedRMSD -1
REMARK  0 active torsions:
REMARK  status: ('A' for Active; 'I' for Inactive)
ROOT
ATOM      1  O1  BZF d   1      -0.371   1.745   0.777  0.00  0.00    -0.204 OA
ATOM      2  C2  BZF d   1      -0.337   0.757  -0.188  0.00  0.00     0.174 A 
ATOM      3  C3  BZF d   1      -1.221  -0.221   0.098  0.00  0.00    -0.012 A 
ATOM      4  C3A BZF d   1      -1.912   0.226   1.268  0.00  0.00    -0.107 A 
ATOM      5  C4  BZF d   1      -2.919  -0.303   2.024  0.00  0.00     0.055 A 
ATOM      6  C5  BZF d   1      -3.316   0.352   3.146  0.00  0.00    -0.016 A 
ATOM      7  C6  BZF d   1      -2.727   1.534   3.545  0.00  0.00     0.022 A 
ATOM      8  C7  BZF d   1      -1.728   2.100   2.825  0.00  0.00     0.029 A 
ATOM      9  C7A BZF d   1      -1.347   1.458   1.672  0.00  0.00     0.058 A 
ENDROOT
TORSDOF 0
ENDMDL
