MODEL 1
REMARK minimizedAffinity -5.43218231
REMARK minimizedRMSD -1
REMARK  0 active torsions:
REMARK  status: ('A' for Active; 'I' for Inactive)
ROOT
ATOM      1  O1  BZF d   1      -0.653   0.562  -0.922  0.00  0.00    -0.204 OA
ATOM      2  C2  BZF d   1      -0.838   0.298   0.421  0.00  0.00     0.174 A 
ATOM      3  C3  BZF d   1       0.322  -0.071   1.001  0.00  0.00    -0.012 A 
ATOM      4  C3A BZF d   1       1.312   0.054  -0.025  0.00  0.00    -0.107 A 
ATOM      5  C4  BZF d   1       2.661  -0.154  -0.058  0.00  0.00     0.055 A 
ATOM      6  C5  BZF d   1       3.322  -0.012  -1.237  0.00  0.00    -0.016 A 
ATOM      7  C6  BZF d   1       2.666   0.332  -2.401  0.00  0.00     0.022 A 
ATOM      8  C7  BZF d   1       1.329   0.553  -2.416  0.00  0.00     0.029 A 
ATOM      9  C7A BZF d   1       0.663   0.443  -1.220  0.00  0.00     0.058 A 
ENDROOT
TORSDOF 0
ENDMDL
