MODEL 1
REMARK minimizedAffinity -3.86998987
REMARK minimizedRMSD -1
REMARK  0 active torsions:
REMARK  status: ('A' for Active; 'I' for Inactive)
ROOT
ATOM      1  O1  BZF d   1      -0.866   1.872  -0.867  0.00  0.00    -0.204 OA
ATOM      2  C2  BZF d   1      -1.651   1.396   0.165  0.00  0.00     0.174 A 
ATOM      3  C3  BZF d   1      -1.256   0.161   0.537  0.00  0.00    -0.012 A 
ATOM      4  C3A BZF d   1      -0.096  -0.117  -0.253  0.00  0.00    -0.107 A 
ATOM      5  C4  BZF d   1       0.755  -1.182  -0.328  0.00  0.00     0.055 A 
ATOM      6  C5  BZF d   1       1.748  -1.170  -1.257  0.00  0.00    -0.016 A 
ATOM      7  C6  BZF d   1       1.914  -0.113  -2.128  0.00  0.00     0.022 A 
ATOM      8  C7  BZF d   1       1.097   0.968  -2.088  0.00  0.00     0.029 A 
ATOM      9  C7A BZF d   1       0.114   0.973  -1.129  0.00  0.00     0.058 A 
ENDROOT
TORSDOF 0
ENDMDL
