MODEL 1
REMARK minimizedAffinity -4.12111282
REMARK minimizedRMSD -1
REMARK  0 active torsions:
REMARK  status: ('A' for Active; 'I' for Inactive)
ROOT
ATOM      1  O1  BZF d   1       0.133   1.098   0.885  0.00  0.00    -0.204 OA
ATOM      2  C2  BZF d   1      -0.033   0.171  -0.126  0.00  0.00     0.174 A 
ATOM      3  C3  BZF d   1      -1.116  -0.600   0.105  0.00  0.00    -0.012 A 
ATOM      4  C3A BZF d   1      -1.713  -0.065   1.290  0.00  0.00    -0.107 A 
ATOM      5  C4  BZF d   1      -2.825  -0.394   2.011  0.00  0.00     0.055 A 
ATOM      6  C5  BZF d   1      -3.090   0.281   3.161  0.00  0.00    -0.016 A 
ATOM      7  C6  BZF d   1      -2.263   1.284   3.621  0.00  0.00     0.022 A 
ATOM      8  C7  BZF d   1      -1.151   1.649   2.937  0.00  0.00     0.029 A 
ATOM      9  C7A BZF d   1      -0.898   0.992   1.758  0.00  0.00     0.058 A 
ENDROOT
TORSDOF 0
ENDMDL
