MODEL 1
REMARK minimizedAffinity -3.93454576
REMARK minimizedRMSD -1
REMARK  0 active torsions:
REMARK  status: ('A' for Active; 'I' for Inactive)
ROOT
ATOM      1  O1  BZF d   1       0.224   1.158  -0.956  0.00  0.00    -0.204 OA
ATOM      2  C2  BZF d   1      -0.881   1.237  -0.130  0.00  0.00     0.174 A 
ATOM      3  C3  BZF d   1      -1.093   0.063   0.499  0.00  0.00    -0.012 A 
ATOM      4  C3A BZF d   1      -0.002  -0.776   0.108  0.00  0.00    -0.107 A 
ATOM      5  C4  BZF d   1       0.355  -2.057   0.417  0.00  0.00     0.055 A 
ATOM      6  C5  BZF d   1       1.439  -2.606  -0.191  0.00  0.00    -0.016 A 
ATOM      7  C6  BZF d   1       2.186  -1.904  -1.114  0.00  0.00     0.022 A 
ATOM      8  C7  BZF d   1       1.875  -0.628  -1.449  0.00  0.00     0.029 A 
ATOM      9  C7A BZF d   1       0.799  -0.060  -0.812  0.00  0.00     0.058 A 
ENDROOT
TORSDOF 0
ENDMDL
