MODEL 1
REMARK minimizedAffinity -3.9225204
REMARK minimizedRMSD -1
REMARK  0 active torsions:
REMARK  status: ('A' for Active; 'I' for Inactive)
ROOT
ATOM      1  O1  BZF d   1      -0.416   1.258  -0.612  0.00  0.00    -0.204 OA
ATOM      2  C2  BZF d   1      -1.247   0.641   0.303  0.00  0.00     0.174 A 
ATOM      3  C3  BZF d   1      -0.767  -0.573   0.641  0.00  0.00    -0.012 A 
ATOM      4  C3A BZF d   1       0.487  -0.686  -0.039  0.00  0.00    -0.107 A 
ATOM      5  C4  BZF d   1       1.445  -1.658  -0.088  0.00  0.00     0.055 A 
ATOM      6  C5  BZF d   1       2.516  -1.489  -0.906  0.00  0.00    -0.016 A 
ATOM      7  C6  BZF d   1       2.659  -0.364  -1.692  0.00  0.00     0.022 A 
ATOM      8  C7  BZF d   1       1.738   0.629  -1.674  0.00  0.00     0.029 A 
ATOM      9  C7A BZF d   1       0.670   0.476  -0.824  0.00  0.00     0.058 A 
ENDROOT
TORSDOF 0
ENDMDL
