MODEL 1
REMARK minimizedAffinity -3.5932641
REMARK minimizedRMSD -1
REMARK  0 active torsions:
REMARK  status: ('A' for Active; 'I' for Inactive)
ROOT
ATOM      1  O1  BZF d   1       1.914  -1.724  -1.192  0.00  0.00    -0.204 OA
ATOM      2  C2  BZF d   1       1.196  -2.231  -0.126  0.00  0.00     0.174 A 
ATOM      3  C3  BZF d   1       0.239  -1.363   0.261  0.00  0.00    -0.012 A 
ATOM      4  C3A BZF d   1       0.306  -0.285  -0.676  0.00  0.00    -0.107 A 
ATOM      5  C4  BZF d   1      -0.402   0.873  -0.828  0.00  0.00     0.055 A 
ATOM      6  C5  BZF d   1      -0.037   1.747  -1.802  0.00  0.00    -0.016 A 
ATOM      7  C6  BZF d   1       1.032   1.499  -2.638  0.00  0.00     0.022 A 
ATOM      8  C7  BZF d   1       1.761   0.361  -2.529  0.00  0.00     0.029 A 
ATOM      9  C7A BZF d   1       1.375  -0.539  -1.567  0.00  0.00     0.058 A 
ENDROOT
TORSDOF 0
ENDMDL
