MODEL 1
REMARK minimizedAffinity -0.876666665
REMARK minimizedRMSD -1
REMARK  0 active torsions:
REMARK  status: ('A' for Active; 'I' for Inactive)
ROOT
ATOM      1  O1  BZF d   1       0.305   1.902   0.635  0.00  0.00    -0.204 OA
ATOM      2  C2  BZF d   1      -0.000   0.946  -0.314  0.00  0.00     0.174 A 
ATOM      3  C3  BZF d   1      -0.810  -0.000   0.204  0.00  0.00    -0.012 A 
ATOM      4  C3A BZF d   1      -1.099   0.439   1.535  0.00  0.00    -0.107 A 
ATOM      5  C4  BZF d   1      -1.863  -0.070   2.546  0.00  0.00     0.055 A 
ATOM      6  C5  BZF d   1      -1.875   0.565   3.748  0.00  0.00    -0.016 A 
ATOM      7  C6  BZF d   1      -1.133   1.705   3.974  0.00  0.00     0.022 A 
ATOM      8  C7  BZF d   1      -0.364   2.250   3.000  0.00  0.00     0.029 A 
ATOM      9  C7A BZF d   1      -0.375   1.630   1.775  0.00  0.00     0.058 A 
ENDROOT
TORSDOF 0
ENDMDL
