MODEL 1
REMARK minimizedAffinity -4.36472893
REMARK minimizedRMSD -1
REMARK  0 active torsions:
REMARK  status: ('A' for Active; 'I' for Inactive)
ROOT
ATOM      1  O1  BZF d   1      -0.471   0.958  -0.191  0.00  0.00    -0.204 OA
ATOM      2  C2  BZF d   1      -0.711  -0.186   0.545  0.00  0.00     0.174 A 
ATOM      3  C3  BZF d   1       0.276  -1.087   0.363  0.00  0.00    -0.012 A 
ATOM      4  C3A BZF d   1       1.236  -0.431  -0.471  0.00  0.00    -0.107 A 
ATOM      5  C4  BZF d   1       2.443  -0.806  -0.987  0.00  0.00     0.055 A 
ATOM      6  C5  BZF d   1       3.096   0.042  -1.824  0.00  0.00    -0.016 A 
ATOM      7  C6  BZF d   1       2.569   1.269  -2.170  0.00  0.00     0.022 A 
ATOM      8  C7  BZF d   1       1.377   1.687  -1.679  0.00  0.00     0.029 A 
ATOM      9  C7A BZF d   1       0.730   0.846  -0.807  0.00  0.00     0.058 A 
ENDROOT
TORSDOF 0
ENDMDL
