MODEL 1
REMARK minimizedAffinity -4.13226557
REMARK minimizedRMSD -1
REMARK  0 active torsions:
REMARK  status: ('A' for Active; 'I' for Inactive)
ROOT
ATOM      1  O1  BZF d   1      -0.456   0.462   0.043  0.00  0.00    -0.204 OA
ATOM      2  C2  BZF d   1      -0.378  -0.771   0.662  0.00  0.00     0.174 A 
ATOM      3  C3  BZF d   1       0.476  -1.582   0.006  0.00  0.00    -0.012 A 
ATOM      4  C3A BZF d   1       1.031  -0.778  -1.039  0.00  0.00    -0.107 A 
ATOM      5  C4  BZF d   1       1.952  -1.016  -2.019  0.00  0.00     0.055 A 
ATOM      6  C5  BZF d   1       2.220  -0.040  -2.926  0.00  0.00    -0.016 A 
ATOM      7  C6  BZF d   1       1.582   1.183  -2.886  0.00  0.00     0.022 A 
ATOM      8  C7  BZF d   1       0.665   1.467  -1.929  0.00  0.00     0.029 A 
ATOM      9  C7A BZF d   1       0.417   0.495  -0.992  0.00  0.00     0.058 A 
ENDROOT
TORSDOF 0
ENDMDL
