MODEL 1
REMARK minimizedAffinity -4.88755178
REMARK minimizedRMSD -1
REMARK  0 active torsions:
REMARK  status: ('A' for Active; 'I' for Inactive)
ROOT
ATOM      1  O1  BZF d   1      -0.283   1.170  -0.331  0.00  0.00    -0.204 OA
ATOM      2  C2  BZF d   1      -0.454   0.032   0.432  0.00  0.00     0.174 A 
ATOM      3  C3  BZF d   1       0.497  -0.882   0.148  0.00  0.00    -0.012 A 
ATOM      4  C3A BZF d   1       1.367  -0.240  -0.790  0.00  0.00    -0.107 A 
ATOM      5  C4  BZF d   1       2.506  -0.632  -1.433  0.00  0.00     0.055 A 
ATOM      6  C5  BZF d   1       3.073   0.205  -2.341  0.00  0.00    -0.016 A 
ATOM      7  C6  BZF d   1       2.525   1.437  -2.634  0.00  0.00     0.022 A 
ATOM      8  C7  BZF d   1       1.399   1.871  -2.017  0.00  0.00     0.029 A 
ATOM      9  C7A BZF d   1       0.842   1.041  -1.075  0.00  0.00     0.058 A 
ENDROOT
TORSDOF 0
ENDMDL
