MODEL 1
REMARK minimizedAffinity 0.213059723
REMARK minimizedRMSD -1
REMARK  0 active torsions:
REMARK  status: ('A' for Active; 'I' for Inactive)
ROOT
ATOM      1  O1  BZF d   1      -0.209  -0.785   3.029  0.00  0.00    -0.204 OA
ATOM      2  C2  BZF d   1      -0.980   0.224   3.573  0.00  0.00     0.174 A 
ATOM      3  C3  BZF d   1      -1.390   1.081   2.615  0.00  0.00    -0.012 A 
ATOM      4  C3A BZF d   1      -0.918   0.525   1.385  0.00  0.00    -0.107 A 
ATOM      5  C4  BZF d   1      -1.022   0.910   0.079  0.00  0.00     0.055 A 
ATOM      6  C5  BZF d   1      -0.385   0.184  -0.877  0.00  0.00    -0.016 A 
ATOM      7  C6  BZF d   1       0.368  -0.928  -0.562  0.00  0.00     0.022 A 
ATOM      8  C7  BZF d   1       0.497  -1.352   0.718  0.00  0.00     0.029 A 
ATOM      9  C7A BZF d   1      -0.173  -0.640   1.683  0.00  0.00     0.058 A 
ENDROOT
TORSDOF 0
ENDMDL
