MODEL 1
REMARK minimizedAffinity -4.82018471
REMARK minimizedRMSD -1
REMARK  0 active torsions:
REMARK  status: ('A' for Active; 'I' for Inactive)
ROOT
ATOM      1  O1  BZF d   1       2.472  -1.223  -1.635  0.00  0.00    -0.204 OA
ATOM      2  C2  BZF d   1       3.097  -0.055  -2.030  0.00  0.00     0.174 A 
ATOM      3  C3  BZF d   1       2.386   1.023  -1.640  0.00  0.00    -0.012 A 
ATOM      4  C3A BZF d   1       1.294   0.498  -0.879  0.00  0.00    -0.107 A 
ATOM      5  C4  BZF d   1       0.250   1.075  -0.213  0.00  0.00     0.055 A 
ATOM      6  C5  BZF d   1      -0.684   0.278   0.368  0.00  0.00    -0.016 A 
ATOM      7  C6  BZF d   1      -0.609  -1.097   0.300  0.00  0.00     0.022 A 
ATOM      8  C7  BZF d   1       0.410  -1.716  -0.345  0.00  0.00     0.029 A 
ATOM      9  C7A BZF d   1       1.374  -0.913  -0.905  0.00  0.00     0.058 A 
ENDROOT
TORSDOF 0
ENDMDL
