MODEL 1
REMARK minimizedAffinity -6.30663967
REMARK minimizedRMSD -1
REMARK  0 active torsions:
REMARK  status: ('A' for Active; 'I' for Inactive)
ROOT
ATOM      1  O1  BZF d   1      -0.525   0.751  -0.608  0.00  0.00    -0.204 OA
ATOM      2  C2  BZF d   1      -1.007  -0.407  -0.027  0.00  0.00     0.174 A 
ATOM      3  C3  BZF d   1      -0.107  -1.406  -0.133  0.00  0.00    -0.012 A 
ATOM      4  C3A BZF d   1       1.045  -0.812  -0.741  0.00  0.00    -0.107 A 
ATOM      5  C4  BZF d   1       2.274  -1.293  -1.092  0.00  0.00     0.055 A 
ATOM      6  C5  BZF d   1       3.145  -0.471  -1.734  0.00  0.00    -0.016 A 
ATOM      7  C6  BZF d   1       2.819   0.833  -2.045  0.00  0.00     0.022 A 
ATOM      8  C7  BZF d   1       1.614   1.356  -1.712  0.00  0.00     0.029 A 
ATOM      9  C7A BZF d   1       0.744   0.538  -1.034  0.00  0.00     0.058 A 
ENDROOT
TORSDOF 0
ENDMDL
