MODEL 1
REMARK minimizedAffinity -2.1217916
REMARK minimizedRMSD -1
REMARK  0 active torsions:
REMARK  status: ('A' for Active; 'I' for Inactive)
ROOT
ATOM      1  O1  BZF d   1       5.827  -1.532   6.000  0.00  0.00    -0.204 OA
ATOM      2  C2  BZF d   1       5.431  -0.209   5.993  0.00  0.00     0.174 A 
ATOM      3  C3  BZF d   1       4.746   0.080   4.868  0.00  0.00    -0.012 A 
ATOM      4  C3A BZF d   1       4.631  -1.163   4.168  0.00  0.00    -0.107 A 
ATOM      5  C4  BZF d   1       4.043  -1.526   2.990  0.00  0.00     0.055 A 
ATOM      6  C5  BZF d   1       4.175  -2.807   2.553  0.00  0.00    -0.016 A 
ATOM      7  C6  BZF d   1       4.891  -3.746   3.265  0.00  0.00     0.022 A 
ATOM      8  C7  BZF d   1       5.488  -3.434   4.441  0.00  0.00     0.029 A 
ATOM      9  C7A BZF d   1       5.329  -2.150   4.901  0.00  0.00     0.058 A 
ENDROOT
TORSDOF 0
ENDMDL
