MODEL 1
REMARK minimizedAffinity -0.283795834
REMARK minimizedRMSD -1
REMARK  0 active torsions:
REMARK  status: ('A' for Active; 'I' for Inactive)
ROOT
ATOM      1  O1  BZF d   1      -0.016   2.251  -1.773  0.00  0.00    -0.204 OA
ATOM      2  C2  BZF d   1       1.319   2.278  -2.130  0.00  0.00     0.174 A 
ATOM      3  C3  BZF d   1       2.096   2.539  -1.059  0.00  0.00    -0.012 A 
ATOM      4  C3A BZF d   1       1.198   2.593   0.053  0.00  0.00    -0.107 A 
ATOM      5  C4  BZF d   1       1.372   2.802   1.391  0.00  0.00     0.055 A 
ATOM      6  C5  BZF d   1       0.280   2.866   2.198  0.00  0.00    -0.016 A 
ATOM      7  C6  BZF d   1      -0.999   2.730   1.700  0.00  0.00     0.022 A 
ATOM      8  C7  BZF d   1      -1.222   2.516   0.380  0.00  0.00     0.029 A 
ATOM      9  C7A BZF d   1      -0.119   2.418  -0.432  0.00  0.00     0.058 A 
ENDROOT
TORSDOF 0
ENDMDL
