MODEL 1
REMARK minimizedAffinity -4.80652189
REMARK minimizedRMSD -1
REMARK  0 active torsions:
REMARK  status: ('A' for Active; 'I' for Inactive)
ROOT
ATOM      1  O1  BZF d   1       6.000  -2.899   5.537  0.00  0.00    -0.204 OA
ATOM      2  C2  BZF d   1       6.000  -1.604   5.058  0.00  0.00     0.174 A 
ATOM      3  C3  BZF d   1       5.108  -1.464   4.056  0.00  0.00    -0.012 A 
ATOM      4  C3A BZF d   1       4.447  -2.730   3.962  0.00  0.00    -0.107 A 
ATOM      5  C4  BZF d   1       3.449  -3.210   3.164  0.00  0.00     0.055 A 
ATOM      6  C5  BZF d   1       3.084  -4.514   3.275  0.00  0.00    -0.016 A 
ATOM      7  C6  BZF d   1       3.698  -5.366   4.169  0.00  0.00     0.022 A 
ATOM      8  C7  BZF d   1       4.690  -4.934   4.985  0.00  0.00     0.029 A 
ATOM      9  C7A BZF d   1       5.039  -3.609   4.898  0.00  0.00     0.058 A 
ENDROOT
TORSDOF 0
ENDMDL
