MODEL 1
REMARK minimizedAffinity -5.82158279
REMARK minimizedRMSD -1
REMARK  0 active torsions:
REMARK  status: ('A' for Active; 'I' for Inactive)
ROOT
ATOM      1  O1  BZF d   1       0.260  -0.585   1.295  0.00  0.00    -0.204 OA
ATOM      2  C2  BZF d   1      -0.415   0.572   1.632  0.00  0.00     0.174 A 
ATOM      3  C3  BZF d   1      -0.297   1.497   0.658  0.00  0.00    -0.012 A 
ATOM      4  C3A BZF d   1       0.425   0.847  -0.393  0.00  0.00    -0.107 A 
ATOM      5  C4  BZF d   1       0.839   1.243  -1.632  0.00  0.00     0.055 A 
ATOM      6  C5  BZF d   1       1.586   0.391  -2.382  0.00  0.00    -0.016 A 
ATOM      7  C6  BZF d   1       1.941  -0.861  -1.923  0.00  0.00     0.022 A 
ATOM      8  C7  BZF d   1       1.549  -1.300  -0.702  0.00  0.00     0.029 A 
ATOM      9  C7A BZF d   1       0.766  -0.454   0.045  0.00  0.00     0.058 A 
ENDROOT
TORSDOF 0
ENDMDL
