MODEL 1
REMARK minimizedAffinity -4.71762943
REMARK minimizedRMSD -1
REMARK  0 active torsions:
REMARK  status: ('A' for Active; 'I' for Inactive)
ROOT
ATOM      1  O1  BZF d   1       1.780  -1.662  -1.438  0.00  0.00    -0.204 OA
ATOM      2  C2  BZF d   1       2.673  -0.950  -2.216  0.00  0.00     0.174 A 
ATOM      3  C3  BZF d   1       2.291   0.339  -2.323  0.00  0.00    -0.012 A 
ATOM      4  C3A BZF d   1       1.134   0.460  -1.490  0.00  0.00    -0.107 A 
ATOM      5  C4  BZF d   1       0.311   1.502  -1.172  0.00  0.00     0.055 A 
ATOM      6  C5  BZF d   1      -0.774   1.271  -0.388  0.00  0.00    -0.016 A 
ATOM      7  C6  BZF d   1      -1.069   0.011   0.091  0.00  0.00     0.022 A 
ATOM      8  C7  BZF d   1      -0.280  -1.053  -0.194  0.00  0.00     0.029 A 
ATOM      9  C7A BZF d   1       0.836  -0.816  -0.959  0.00  0.00     0.058 A 
ENDROOT
TORSDOF 0
ENDMDL
