MODEL 1
REMARK minimizedAffinity -4.45719147
REMARK minimizedRMSD -1
REMARK  0 active torsions:
REMARK  status: ('A' for Active; 'I' for Inactive)
ROOT
ATOM      1  O1  BZF d   1       1.577   1.693  -2.283  0.00  0.00    -0.204 OA
ATOM      2  C2  BZF d   1       2.648   1.157  -2.971  0.00  0.00     0.174 A 
ATOM      3  C3  BZF d   1       2.837  -0.134  -2.632  0.00  0.00    -0.012 A 
ATOM      4  C3A BZF d   1       1.764  -0.450  -1.741  0.00  0.00    -0.107 A 
ATOM      5  C4  BZF d   1       1.398  -1.586  -1.077  0.00  0.00     0.055 A 
ATOM      6  C5  BZF d   1       0.339  -1.542  -0.226  0.00  0.00    -0.016 A 
ATOM      7  C6  BZF d   1      -0.372  -0.380  -0.012  0.00  0.00     0.022 A 
ATOM      8  C7  BZF d   1      -0.050   0.771  -0.651  0.00  0.00     0.029 A 
ATOM      9  C7A BZF d   1       0.999   0.722  -1.536  0.00  0.00     0.058 A 
ENDROOT
TORSDOF 0
ENDMDL
