MODEL 1
REMARK minimizedAffinity 2.41809869
REMARK minimizedRMSD -1
REMARK  0 active torsions:
REMARK  status: ('A' for Active; 'I' for Inactive)
ROOT
ATOM      1  C   UNL d   1       4.386   5.906  -1.996  0.00  0.00     0.023 A 
ATOM      2  C1  UNL d   1       3.654   6.000  -3.179  0.00  0.00     0.003 A 
ATOM      3  C2  UNL d   1       4.092   5.338  -4.328  0.00  0.00     0.048 A 
ATOM      4  C3  UNL d   1       5.263   4.582  -4.286  0.00  0.00     0.023 A 
ATOM      5  C4  UNL d   1       5.999   4.484  -3.104  0.00  0.00     0.048 A 
ATOM      6  C5  UNL d   1       5.558   5.149  -1.958  0.00  0.00     0.003 A 
ATOM      7  I   UNL d   1       5.917   3.595  -5.994  0.00  0.00    -0.146 I 
ENDROOT
TORSDOF 0
ENDMDL
