MODEL 1
REMARK minimizedAffinity 5.28400326
REMARK minimizedRMSD -1
REMARK  0 active torsions:
REMARK  status: ('A' for Active; 'I' for Inactive)
ROOT
ATOM      1  C   UNL d   1       3.169  -1.090   3.869  0.00  0.00     0.023 A 
ATOM      2  C1  UNL d   1       3.353  -1.138   5.251  0.00  0.00     0.003 A 
ATOM      3  C2  UNL d   1       3.744  -2.330   5.864  0.00  0.00     0.048 A 
ATOM      4  C3  UNL d   1       3.951  -3.471   5.088  0.00  0.00     0.023 A 
ATOM      5  C4  UNL d   1       3.769  -3.427   3.705  0.00  0.00     0.048 A 
ATOM      6  C5  UNL d   1       3.377  -2.233   3.097  0.00  0.00     0.003 A 
ATOM      7  I   UNL d   1       4.534  -5.246   5.998  0.00  0.00    -0.146 I 
ENDROOT
TORSDOF 0
ENDMDL
