MODEL 1
REMARK minimizedAffinity -1.00979149
REMARK minimizedRMSD -1
REMARK  0 active torsions:
REMARK  status: ('A' for Active; 'I' for Inactive)
ROOT
ATOM      1  C   UNL d   1       4.129  -1.371   4.986  0.00  0.00     0.023 A 
ATOM      2  C1  UNL d   1       5.320  -1.471   5.704  0.00  0.00     0.003 A 
ATOM      3  C2  UNL d   1       5.858  -2.726   5.997  0.00  0.00     0.048 A 
ATOM      4  C3  UNL d   1       5.199  -3.877   5.566  0.00  0.00     0.023 A 
ATOM      5  C4  UNL d   1       4.007  -3.782   4.846  0.00  0.00     0.048 A 
ATOM      6  C5  UNL d   1       3.473  -2.525   4.557  0.00  0.00     0.003 A 
ATOM      7  I   UNL d   1       5.997  -5.747   5.999  0.00  0.00    -0.146 I 
ENDROOT
TORSDOF 0
ENDMDL
