MODEL 1
REMARK minimizedAffinity 3.68673921
REMARK minimizedRMSD -1
REMARK  0 active torsions:
REMARK  status: ('A' for Active; 'I' for Inactive)
ROOT
ATOM      1  C   UNL d   1       2.857  -1.247   4.090  0.00  0.00     0.023 A 
ATOM      2  C1  UNL d   1       3.421  -2.238   3.287  0.00  0.00     0.003 A 
ATOM      3  C2  UNL d   1       4.323  -3.153   3.833  0.00  0.00     0.048 A 
ATOM      4  C3  UNL d   1       4.657  -3.072   5.184  0.00  0.00     0.023 A 
ATOM      5  C4  UNL d   1       4.095  -2.083   5.993  0.00  0.00     0.048 A 
ATOM      6  C5  UNL d   1       3.194  -1.170   5.442  0.00  0.00     0.003 A 
ATOM      7  I   UNL d   1       6.000  -4.433   6.000  0.00  0.00    -0.146 I 
ENDROOT
TORSDOF 0
ENDMDL
