MODEL 1
REMARK minimizedAffinity 4.96059942
REMARK minimizedRMSD -1
REMARK  0 active torsions:
REMARK  status: ('A' for Active; 'I' for Inactive)
ROOT
ATOM      1  C   UNL d   1       4.186   5.345  -1.451  0.00  0.00     0.023 A 
ATOM      2  C1  UNL d   1       3.308   5.219  -2.528  0.00  0.00     0.003 A 
ATOM      3  C2  UNL d   1       3.772   5.398  -3.833  0.00  0.00     0.048 A 
ATOM      4  C3  UNL d   1       5.114   5.703  -4.054  0.00  0.00     0.023 A 
ATOM      5  C4  UNL d   1       5.996   5.830  -2.980  0.00  0.00     0.048 A 
ATOM      6  C5  UNL d   1       5.528   5.651  -1.677  0.00  0.00     0.003 A 
ATOM      7  I   UNL d   1       5.807   5.970  -5.996  0.00  0.00    -0.146 I 
ENDROOT
TORSDOF 0
ENDMDL
