MODEL 1
REMARK minimizedAffinity -2.2351501
REMARK minimizedRMSD -1
REMARK  0 active torsions:
REMARK  status: ('A' for Active; 'I' for Inactive)
ROOT
ATOM      1  C   UNL d   1       4.661   4.511  -6.000  0.00  0.00     0.023 A 
ATOM      2  C1  UNL d   1       5.593   3.736  -5.310  0.00  0.00     0.003 A 
ATOM      3  C2  UNL d   1       5.966   4.083  -4.010  0.00  0.00     0.048 A 
ATOM      4  C3  UNL d   1       5.402   5.206  -3.405  0.00  0.00     0.023 A 
ATOM      5  C4  UNL d   1       4.468   5.984  -4.091  0.00  0.00     0.048 A 
ATOM      6  C5  UNL d   1       4.099   5.634  -5.391  0.00  0.00     0.003 A 
ATOM      7  I   UNL d   1       5.956   5.724  -1.470  0.00  0.00    -0.146 I 
ENDROOT
TORSDOF 0
ENDMDL
