MODEL 1
REMARK minimizedAffinity 1.85466909
REMARK minimizedRMSD -1
REMARK  0 active torsions:
REMARK  status: ('A' for Active; 'I' for Inactive)
ROOT
ATOM      1  C   UNL d   1       0.931  -1.816  -3.587  0.00  0.00     0.023 A 
ATOM      2  C1  UNL d   1       0.469  -2.197  -4.847  0.00  0.00     0.003 A 
ATOM      3  C2  UNL d   1      -0.226  -3.398  -5.003  0.00  0.00     0.048 A 
ATOM      4  C3  UNL d   1      -0.457  -4.212  -3.895  0.00  0.00     0.023 A 
ATOM      5  C4  UNL d   1       0.002  -3.834  -2.632  0.00  0.00     0.048 A 
ATOM      6  C5  UNL d   1       0.697  -2.633  -2.481  0.00  0.00     0.003 A 
ATOM      7  I   UNL d   1      -1.492  -6.000  -4.125  0.00  0.00    -0.146 I 
ENDROOT
TORSDOF 0
ENDMDL
