MODEL 1
REMARK minimizedAffinity 4.00292015
REMARK minimizedRMSD -1
REMARK  0 active torsions:
REMARK  status: ('A' for Active; 'I' for Inactive)
ROOT
ATOM      1  C   UNL d   1       4.075   4.841  -5.934  0.00  0.00     0.023 A 
ATOM      2  C1  UNL d   1       3.378   5.673  -5.057  0.00  0.00     0.003 A 
ATOM      3  C2  UNL d   1       3.929   5.999  -3.816  0.00  0.00     0.048 A 
ATOM      4  C3  UNL d   1       5.177   5.491  -3.459  0.00  0.00     0.023 A 
ATOM      5  C4  UNL d   1       5.879   4.659  -4.333  0.00  0.00     0.048 A 
ATOM      6  C5  UNL d   1       5.323   4.335  -5.572  0.00  0.00     0.003 A 
ATOM      7  I   UNL d   1       5.999   5.976  -1.612  0.00  0.00    -0.146 I 
ENDROOT
TORSDOF 0
ENDMDL
