MODEL 1
REMARK minimizedAffinity -0.618908048
REMARK minimizedRMSD -1
REMARK  0 active torsions:
REMARK  status: ('A' for Active; 'I' for Inactive)
ROOT
ATOM      1  C   UNL d   1       5.054  -2.314  -0.007  0.00  0.00     0.023 A 
ATOM      2  C1  UNL d   1       4.109  -1.498   0.615  0.00  0.00     0.003 A 
ATOM      3  C2  UNL d   1       4.106  -1.365   2.005  0.00  0.00     0.048 A 
ATOM      4  C3  UNL d   1       5.052  -2.050   2.767  0.00  0.00     0.023 A 
ATOM      5  C4  UNL d   1       6.000  -2.867   2.149  0.00  0.00     0.048 A 
ATOM      6  C5  UNL d   1       5.998  -2.998   0.759  0.00  0.00     0.003 A 
ATOM      7  I   UNL d   1       5.051  -1.852   4.836  0.00  0.00    -0.146 I 
ENDROOT
TORSDOF 0
ENDMDL
