MODEL 1
REMARK minimizedAffinity 3.45839024
REMARK minimizedRMSD -1
REMARK  0 active torsions:
REMARK  status: ('A' for Active; 'I' for Inactive)
ROOT
ATOM      1  C   UNL d   1       5.991   4.190  -1.686  0.00  0.00     0.023 A 
ATOM      2  C1  UNL d   1       5.976   3.473  -2.882  0.00  0.00     0.003 A 
ATOM      3  C2  UNL d   1       5.317   3.989  -4.000  0.00  0.00     0.048 A 
ATOM      4  C3  UNL d   1       4.675   5.224  -3.914  0.00  0.00     0.023 A 
ATOM      5  C4  UNL d   1       4.688   5.946  -2.720  0.00  0.00     0.048 A 
ATOM      6  C5  UNL d   1       5.348   5.425  -1.605  0.00  0.00     0.003 A 
ATOM      7  I   UNL d   1       3.693   5.995  -5.576  0.00  0.00    -0.146 I 
ENDROOT
TORSDOF 0
ENDMDL
