MODEL 1
REMARK minimizedAffinity 2.73817658
REMARK minimizedRMSD -1
REMARK  0 active torsions:
REMARK  status: ('A' for Active; 'I' for Inactive)
ROOT
ATOM      1  C   UNL d   1      -0.975  -3.132  -1.115  0.00  0.00     0.023 A 
ATOM      2  C1  UNL d   1      -0.051  -2.404  -0.366  0.00  0.00     0.003 A 
ATOM      3  C2  UNL d   1       1.139  -1.970  -0.954  0.00  0.00     0.048 A 
ATOM      4  C3  UNL d   1       1.397  -2.265  -2.292  0.00  0.00     0.023 A 
ATOM      5  C4  UNL d   1       0.475  -2.992  -3.045  0.00  0.00     0.048 A 
ATOM      6  C5  UNL d   1      -0.713  -3.425  -2.453  0.00  0.00     0.003 A 
ATOM      7  I   UNL d   1       3.167  -1.620  -3.169  0.00  0.00    -0.146 I 
ENDROOT
TORSDOF 0
ENDMDL
