MODEL 1
REMARK minimizedAffinity 5.82957458
REMARK minimizedRMSD -1
REMARK  0 active torsions:
REMARK  status: ('A' for Active; 'I' for Inactive)
ROOT
ATOM      1  C   UNL d   1       0.520  -2.393  -3.365  0.00  0.00     0.023 A 
ATOM      2  C1  UNL d   1      -0.597  -3.221  -3.257  0.00  0.00     0.003 A 
ATOM      3  C2  UNL d   1      -1.310  -3.282  -2.058  0.00  0.00     0.048 A 
ATOM      4  C3  UNL d   1      -0.900  -2.510  -0.971  0.00  0.00     0.023 A 
ATOM      5  C4  UNL d   1       0.217  -1.680  -1.075  0.00  0.00     0.048 A 
ATOM      6  C5  UNL d   1       0.926  -1.623  -2.275  0.00  0.00     0.003 A 
ATOM      7  I   UNL d   1      -1.959  -2.598   0.816  0.00  0.00    -0.146 I 
ENDROOT
TORSDOF 0
ENDMDL
