MODEL 1
REMARK minimizedAffinity 7.20315027
REMARK minimizedRMSD -1
REMARK  0 active torsions:
REMARK  status: ('A' for Active; 'I' for Inactive)
ROOT
ATOM      1  C   UNL d   1       5.994   4.014  -3.381  0.00  0.00     0.023 A 
ATOM      2  C1  UNL d   1       5.022   3.738  -4.343  0.00  0.00     0.003 A 
ATOM      3  C2  UNL d   1       3.751   4.307  -4.235  0.00  0.00     0.048 A 
ATOM      4  C3  UNL d   1       3.460   5.151  -3.164  0.00  0.00     0.023 A 
ATOM      5  C4  UNL d   1       4.430   5.431  -2.200  0.00  0.00     0.048 A 
ATOM      6  C5  UNL d   1       5.699   4.859  -2.312  0.00  0.00     0.003 A 
ATOM      7  I   UNL d   1       1.569   5.999  -3.002  0.00  0.00    -0.146 I 
ENDROOT
TORSDOF 0
ENDMDL
