MODEL 1
REMARK minimizedAffinity 0.792260766
REMARK minimizedRMSD -1
REMARK  0 active torsions:
REMARK  status: ('A' for Active; 'I' for Inactive)
ROOT
ATOM      1  C   UNL d   1       4.619   4.300  -5.093  0.00  0.00     0.023 A 
ATOM      2  C1  UNL d   1       5.588   3.621  -4.355  0.00  0.00     0.003 A 
ATOM      3  C2  UNL d   1       5.986   4.108  -3.108  0.00  0.00     0.048 A 
ATOM      4  C3  UNL d   1       5.410   5.274  -2.605  0.00  0.00     0.023 A 
ATOM      5  C4  UNL d   1       4.439   5.956  -3.340  0.00  0.00     0.048 A 
ATOM      6  C5  UNL d   1       4.046   5.466  -4.587  0.00  0.00     0.003 A 
ATOM      7  I   UNL d   1       6.000   6.000  -0.749  0.00  0.00    -0.146 I 
ENDROOT
TORSDOF 0
ENDMDL
