MODEL 1
REMARK minimizedAffinity 6.40769434
REMARK minimizedRMSD -1
REMARK  0 active torsions:
REMARK  status: ('A' for Active; 'I' for Inactive)
ROOT
ATOM      1  C   UNL d   1      -0.648  -2.934   0.184  0.00  0.00     0.023 A 
ATOM      2  C1  UNL d   1      -1.577  -2.178  -0.531  0.00  0.00     0.003 A 
ATOM      3  C2  UNL d   1      -1.476  -2.077  -1.920  0.00  0.00     0.048 A 
ATOM      4  C3  UNL d   1      -0.445  -2.736  -2.588  0.00  0.00     0.023 A 
ATOM      5  C4  UNL d   1       0.487  -3.495  -1.877  0.00  0.00     0.048 A 
ATOM      6  C5  UNL d   1       0.383  -3.592  -0.488  0.00  0.00     0.003 A 
ATOM      7  I   UNL d   1      -0.293  -2.588  -4.655  0.00  0.00    -0.146 I 
ENDROOT
TORSDOF 0
ENDMDL
