MODEL 1
REMARK minimizedAffinity -1.24880064
REMARK minimizedRMSD -1
REMARK  0 active torsions:
REMARK  status: ('A' for Active; 'I' for Inactive)
ROOT
ATOM      1  C   UNL d   1       3.952   5.741  -1.660  0.00  0.00     0.023 A 
ATOM      2  C1  UNL d   1       5.309   5.997  -1.856  0.00  0.00     0.003 A 
ATOM      3  C2  UNL d   1       5.894   5.755  -3.101  0.00  0.00     0.048 A 
ATOM      4  C3  UNL d   1       5.115   5.258  -4.146  0.00  0.00     0.023 A 
ATOM      5  C4  UNL d   1       3.757   5.001  -3.954  0.00  0.00     0.048 A 
ATOM      6  C5  UNL d   1       3.177   5.244  -2.708  0.00  0.00     0.003 A 
ATOM      7  I   UNL d   1       5.983   4.898  -5.999  0.00  0.00    -0.146 I 
ENDROOT
TORSDOF 0
ENDMDL
