MODEL 1
REMARK minimizedAffinity 0.754714012
REMARK minimizedRMSD -1
REMARK  0 active torsions:
REMARK  status: ('A' for Active; 'I' for Inactive)
ROOT
ATOM      1  C   UNL d   1       1.175  -3.003  -3.511  0.00  0.00     0.023 A 
ATOM      2  C1  UNL d   1       0.151  -3.945  -3.415  0.00  0.00     0.003 A 
ATOM      3  C2  UNL d   1      -0.838  -3.805  -2.439  0.00  0.00     0.048 A 
ATOM      4  C3  UNL d   1      -0.798  -2.721  -1.564  0.00  0.00     0.023 A 
ATOM      5  C4  UNL d   1       0.225  -1.775  -1.657  0.00  0.00     0.048 A 
ATOM      6  C5  UNL d   1       1.212  -1.919  -2.634  0.00  0.00     0.003 A 
ATOM      7  I   UNL d   1      -2.269  -2.510  -0.111  0.00  0.00    -0.146 I 
ENDROOT
TORSDOF 0
ENDMDL
