MODEL 1
REMARK minimizedAffinity 0.325205743
REMARK minimizedRMSD -1
REMARK  0 active torsions:
REMARK  status: ('A' for Active; 'I' for Inactive)
ROOT
ATOM      1  C   UNL d   1       4.947  -0.854   5.985  0.00  0.00     0.023 A 
ATOM      2  C1  UNL d   1       5.699  -1.992   5.691  0.00  0.00     0.003 A 
ATOM      3  C2  UNL d   1       6.000  -2.308   4.365  0.00  0.00     0.048 A 
ATOM      4  C3  UNL d   1       5.547  -1.482   3.337  0.00  0.00     0.023 A 
ATOM      5  C4  UNL d   1       4.796  -0.341   3.626  0.00  0.00     0.048 A 
ATOM      6  C5  UNL d   1       4.496  -0.030   4.954  0.00  0.00     0.003 A 
ATOM      7  I   UNL d   1       5.994  -1.951   1.362  0.00  0.00    -0.146 I 
ENDROOT
TORSDOF 0
ENDMDL
