MODEL 1
REMARK minimizedAffinity -4.28701973
REMARK minimizedRMSD -1
REMARK  0 active torsions:
REMARK  status: ('A' for Active; 'I' for Inactive)
ROOT
ATOM      1  C4' PXY d   1      -1.185  -3.609  -2.388  0.00  0.00     0.077 C 
ATOM      2  C1' PXY d   1       0.471   0.953   0.753  0.00  0.00     0.077 C 
ATOM      3  C1  PXY d   1       0.045  -0.250  -0.065  0.00  0.00    -0.082 A 
ATOM      4  C2  PXY d   1      -0.559  -0.071  -1.228  0.00  0.00     0.003 A 
ATOM      5  C3  PXY d   1      -0.979  -1.148  -1.966  0.00  0.00     0.003 A 
ATOM      6  C4  PXY d   1      -0.730  -2.423  -1.533  0.00  0.00    -0.082 A 
ATOM      7  C5  PXY d   1      -0.105  -2.615  -0.352  0.00  0.00     0.003 A 
ATOM      8  C6  PXY d   1       0.277  -1.508   0.401  0.00  0.00     0.003 A 
ENDROOT
TORSDOF 0
ENDMDL
