MODEL 1
REMARK minimizedAffinity -3.42582917
REMARK minimizedRMSD -1
REMARK  0 active torsions:
REMARK  status: ('A' for Active; 'I' for Inactive)
ROOT
ATOM      1  C4' PXY d   1      -0.355  -2.864  -0.666  0.00  0.00     0.077 C 
ATOM      2  C1' PXY d   1      -0.265   2.829   0.330  0.00  0.00     0.077 C 
ATOM      3  C1  PXY d   1      -0.279   1.338   0.061  0.00  0.00    -0.082 A 
ATOM      4  C2  PXY d   1      -1.385   0.644   0.277  0.00  0.00     0.003 A 
ATOM      5  C3  PXY d   1      -1.405  -0.711   0.069  0.00  0.00     0.003 A 
ATOM      6  C4  PXY d   1      -0.298  -1.354  -0.416  0.00  0.00    -0.082 A 
ATOM      7  C5  PXY d   1       0.831  -0.652  -0.650  0.00  0.00     0.003 A 
ATOM      8  C6  PXY d   1       0.843   0.716  -0.393  0.00  0.00     0.003 A 
ENDROOT
TORSDOF 0
ENDMDL
