MODEL 1
REMARK minimizedAffinity -4.26829672
REMARK minimizedRMSD -1
REMARK  0 active torsions:
REMARK  status: ('A' for Active; 'I' for Inactive)
ROOT
ATOM      1  C4' PXY d   1       2.755   1.876   1.110  0.00  0.00     0.077 C 
ATOM      2  C1' PXY d   1      -2.654   0.465  -0.363  0.00  0.00     0.077 C 
ATOM      3  C1  PXY d   1      -1.233   0.823   0.027  0.00  0.00    -0.082 A 
ATOM      4  C2  PXY d   1      -0.940   2.070   0.357  0.00  0.00     0.003 A 
ATOM      5  C3  PXY d   1       0.347   2.417   0.680  0.00  0.00     0.003 A 
ATOM      6  C4  PXY d   1       1.332   1.467   0.719  0.00  0.00    -0.082 A 
ATOM      7  C5  PXY d   1       1.038   0.190   0.394  0.00  0.00     0.003 A 
ATOM      8  C6  PXY d   1      -0.265  -0.134   0.028  0.00  0.00     0.003 A 
ENDROOT
TORSDOF 0
ENDMDL
