MODEL 1
REMARK minimizedAffinity -2.73289371
REMARK minimizedRMSD -1
REMARK  0 active torsions:
REMARK  status: ('A' for Active; 'I' for Inactive)
ROOT
ATOM      1  C4' PXY d   1       3.475   1.471   0.903  0.00  0.00     0.077 C 
ATOM      2  C1' PXY d   1      -2.239   0.860   0.275  0.00  0.00     0.077 C 
ATOM      3  C1  PXY d   1      -0.739   1.008   0.443  0.00  0.00    -0.082 A 
ATOM      4  C2  PXY d   1      -0.223   2.202   0.683  0.00  0.00     0.003 A 
ATOM      5  C3  PXY d   1       1.134   2.358   0.806  0.00  0.00     0.003 A 
ATOM      6  C4  PXY d   1       1.966   1.273   0.736  0.00  0.00    -0.082 A 
ATOM      7  C5  PXY d   1       1.445   0.050   0.501  0.00  0.00     0.003 A 
ATOM      8  C6  PXY d   1       0.069  -0.082   0.339  0.00  0.00     0.003 A 
ENDROOT
TORSDOF 0
ENDMDL
