MODEL 1
REMARK minimizedAffinity -3.37474871
REMARK minimizedRMSD -1
REMARK  0 active torsions:
REMARK  status: ('A' for Active; 'I' for Inactive)
ROOT
ATOM      1  C4' PXY d   1      -1.195   3.362   3.272  0.00  0.00     0.077 C 
ATOM      2  C1' PXY d   1       1.252   1.236  -1.514  0.00  0.00     0.077 C 
ATOM      3  C1  PXY d   1       0.622   1.797  -0.254  0.00  0.00    -0.082 A 
ATOM      4  C2  PXY d   1      -0.538   1.319   0.166  0.00  0.00     0.003 A 
ATOM      5  C3  PXY d   1      -1.137   1.837   1.285  0.00  0.00     0.003 A 
ATOM      6  C4  PXY d   1      -0.517   2.819   2.011  0.00  0.00    -0.082 A 
ATOM      7  C5  PXY d   1       0.671   3.304   1.595  0.00  0.00     0.003 A 
ATOM      8  C6  PXY d   1       1.243   2.793   0.434  0.00  0.00     0.003 A 
ENDROOT
TORSDOF 0
ENDMDL
