MODEL 1
REMARK minimizedAffinity -3.30034518
REMARK minimizedRMSD -1
REMARK  0 active torsions:
REMARK  status: ('A' for Active; 'I' for Inactive)
ROOT
ATOM      1  C4' PXY d   1       0.132   3.561  -0.278  0.00  0.00     0.077 C 
ATOM      2  C1' PXY d   1       0.361  -2.170   0.440  0.00  0.00     0.077 C 
ATOM      3  C1  PXY d   1       0.288  -0.667   0.251  0.00  0.00    -0.082 A 
ATOM      4  C2  PXY d   1       1.334  -0.017  -0.233  0.00  0.00     0.003 A 
ATOM      5  C3  PXY d   1       1.296   1.345  -0.380  0.00  0.00     0.003 A 
ATOM      6  C4  PXY d   1       0.158   2.044  -0.079  0.00  0.00    -0.082 A 
ATOM      7  C5  PXY d   1      -0.917   1.386   0.405  0.00  0.00     0.003 A 
ATOM      8  C6  PXY d   1      -0.845   0.008   0.586  0.00  0.00     0.003 A 
ENDROOT
TORSDOF 0
ENDMDL
