MODEL 1
REMARK minimizedAffinity -0.861432016
REMARK minimizedRMSD -1
REMARK  0 active torsions:
REMARK  status: ('A' for Active; 'I' for Inactive)
ROOT
ATOM      1  C4' PXY d   1       0.084   3.249   0.935  0.00  0.00     0.077 C 
ATOM      2  C1' PXY d   1       0.228  -2.335  -0.553  0.00  0.00     0.077 C 
ATOM      3  C1  PXY d   1       0.202  -0.872  -0.158  0.00  0.00    -0.082 A 
ATOM      4  C2  PXY d   1      -0.959  -0.252  -0.017  0.00  0.00     0.003 A 
ATOM      5  C3  PXY d   1      -1.000   1.079   0.309  0.00  0.00     0.003 A 
ATOM      6  C4  PXY d   1       0.158   1.770   0.546  0.00  0.00    -0.082 A 
ATOM      7  C5  PXY d   1       1.346   1.143   0.415  0.00  0.00     0.003 A 
ATOM      8  C6  PXY d   1       1.367  -0.198   0.043  0.00  0.00     0.003 A 
ENDROOT
TORSDOF 0
ENDMDL
