MODEL 1
REMARK minimizedAffinity -5.25747538
REMARK minimizedRMSD -1
REMARK  0 active torsions:
REMARK  status: ('A' for Active; 'I' for Inactive)
ROOT
ATOM      1  C4' PXY d   1      -0.038   2.694   1.132  0.00  0.00     0.077 C 
ATOM      2  C1' PXY d   1       0.415  -3.025   0.425  0.00  0.00     0.077 C 
ATOM      3  C1  PXY d   1       0.309  -1.524   0.611  0.00  0.00    -0.082 A 
ATOM      4  C2  PXY d   1      -0.807  -1.002   1.092  0.00  0.00     0.003 A 
ATOM      5  C3  PXY d   1      -0.932   0.356   1.237  0.00  0.00     0.003 A 
ATOM      6  C4  PXY d   1       0.117   1.184   0.936  0.00  0.00    -0.082 A 
ATOM      7  C5  PXY d   1       1.263   0.658   0.455  0.00  0.00     0.003 A 
ATOM      8  C6  PXY d   1       1.355  -0.720   0.277  0.00  0.00     0.003 A 
ENDROOT
TORSDOF 0
ENDMDL
