MODEL 1
REMARK minimizedAffinity -4.31415987
REMARK minimizedRMSD -1
REMARK  0 active torsions:
REMARK  status: ('A' for Active; 'I' for Inactive)
ROOT
ATOM      1  C4' PXY d   1       0.071  -2.362   0.318  0.00  0.00     0.077 C 
ATOM      2  C1' PXY d   1       0.105   3.403  -0.101  0.00  0.00     0.077 C 
ATOM      3  C1  PXY d   1       0.086   1.892   0.017  0.00  0.00    -0.082 A 
ATOM      4  C2  PXY d   1       1.186   1.202  -0.238  0.00  0.00     0.003 A 
ATOM      5  C3  PXY d   1       1.178  -0.167  -0.167  0.00  0.00     0.003 A 
ATOM      6  C4  PXY d   1       0.046  -0.834   0.221  0.00  0.00    -0.082 A 
ATOM      7  C5  PXY d   1      -1.077  -0.137   0.493  0.00  0.00     0.003 A 
ATOM      8  C6  PXY d   1      -1.059   1.250   0.375  0.00  0.00     0.003 A 
ENDROOT
TORSDOF 0
ENDMDL
