MODEL 1
REMARK minimizedAffinity -4.81534815
REMARK minimizedRMSD -1
REMARK  0 active torsions:
REMARK  status: ('A' for Active; 'I' for Inactive)
ROOT
ATOM      1  C4' PXY d   1      -0.360  -3.097  -0.240  0.00  0.00     0.077 C 
ATOM      2  C1' PXY d   1      -0.409   2.628   0.558  0.00  0.00     0.077 C 
ATOM      3  C1  PXY d   1      -0.386   1.127   0.342  0.00  0.00    -0.082 A 
ATOM      4  C2  PXY d   1      -1.504   0.431   0.466  0.00  0.00     0.003 A 
ATOM      5  C3  PXY d   1      -1.494  -0.931   0.304  0.00  0.00     0.003 A 
ATOM      6  C4  PXY d   1      -0.339  -1.580  -0.040  0.00  0.00    -0.082 A 
ATOM      7  C5  PXY d   1       0.804  -0.875  -0.179  0.00  0.00     0.003 A 
ATOM      8  C6  PXY d   1       0.782   0.501   0.030  0.00  0.00     0.003 A 
ENDROOT
TORSDOF 0
ENDMDL
