MODEL 1
REMARK minimizedAffinity -2.70337915
REMARK minimizedRMSD -1
REMARK  0 active torsions:
REMARK  status: ('A' for Active; 'I' for Inactive)
ROOT
ATOM      1  C4' PXY d   1       0.368   2.609   0.716  0.00  0.00     0.077 C 
ATOM      2  C1' PXY d   1      -0.870  -2.947  -0.290  0.00  0.00     0.077 C 
ATOM      3  C1  PXY d   1      -0.558  -1.487  -0.028  0.00  0.00    -0.082 A 
ATOM      4  C2  PXY d   1       0.674  -1.039  -0.210  0.00  0.00     0.003 A 
ATOM      5  C3  PXY d   1       0.981   0.272   0.053  0.00  0.00     0.003 A 
ATOM      6  C4  PXY d   1       0.005   1.144   0.455  0.00  0.00    -0.082 A 
ATOM      7  C5  PXY d   1      -1.256   0.697   0.633  0.00  0.00     0.003 A 
ATOM      8  C6  PXY d   1      -1.538  -0.646   0.400  0.00  0.00     0.003 A 
ENDROOT
TORSDOF 0
ENDMDL
