MODEL 1
REMARK minimizedAffinity -1.64378262
REMARK minimizedRMSD -1
REMARK  0 active torsions:
REMARK  status: ('A' for Active; 'I' for Inactive)
ROOT
ATOM      1  C4' PXY d   1      -0.577  -3.077  -1.982  0.00  0.00     0.077 C 
ATOM      2  C1' PXY d   1      -1.235   1.998   0.706  0.00  0.00     0.077 C 
ATOM      3  C1  PXY d   1      -1.050   0.667   0.004  0.00  0.00    -0.082 A 
ATOM      4  C2  PXY d   1      -1.885   0.314  -0.959  0.00  0.00     0.003 A 
ATOM      5  C3  PXY d   1      -1.752  -0.900  -1.582  0.00  0.00     0.003 A 
ATOM      6  C4  PXY d   1      -0.720  -1.738  -1.252  0.00  0.00    -0.082 A 
ATOM      7  C5  PXY d   1       0.142  -1.380  -0.278  0.00  0.00     0.003 A 
ATOM      8  C6  PXY d   1      -0.035  -0.162   0.371  0.00  0.00     0.003 A 
ENDROOT
TORSDOF 0
ENDMDL
