MODEL 1
REMARK minimizedAffinity -4.17053843
REMARK minimizedRMSD -1
REMARK  0 active torsions:
REMARK  status: ('A' for Active; 'I' for Inactive)
ROOT
ATOM      1  C4' PXY d   1      -0.394  -2.126   0.028  0.00  0.00     0.077 C 
ATOM      2  C1' PXY d   1       1.117   3.429   0.556  0.00  0.00     0.077 C 
ATOM      3  C1  PXY d   1       0.711   1.974   0.425  0.00  0.00    -0.082 A 
ATOM      4  C2  PXY d   1       1.625   1.063   0.135  0.00  0.00     0.003 A 
ATOM      5  C3  PXY d   1       1.269  -0.252  -0.018  0.00  0.00     0.003 A 
ATOM      6  C4  PXY d   1      -0.027  -0.647   0.179  0.00  0.00    -0.082 A 
ATOM      7  C5  PXY d   1      -0.964   0.275   0.486  0.00  0.00     0.003 A 
ATOM      8  C6  PXY d   1      -0.589   1.611   0.596  0.00  0.00     0.003 A 
ENDROOT
TORSDOF 0
ENDMDL
