MODEL 1
REMARK minimizedAffinity -4.9369669
REMARK minimizedRMSD -1
REMARK  0 active torsions:
REMARK  status: ('A' for Active; 'I' for Inactive)
ROOT
ATOM      1  C4' PXY d   1      -0.246  -2.099  -0.006  0.00  0.00     0.077 C 
ATOM      2  C1' PXY d   1       0.614   3.610  -0.293  0.00  0.00     0.077 C 
ATOM      3  C1  PXY d   1       0.379   2.115  -0.208  0.00  0.00    -0.082 A 
ATOM      4  C2  PXY d   1       1.345   1.281  -0.557  0.00  0.00     0.003 A 
ATOM      5  C3  PXY d   1       1.138  -0.074  -0.518  0.00  0.00     0.003 A 
ATOM      6  C4  PXY d   1      -0.051  -0.581  -0.066  0.00  0.00    -0.082 A 
ATOM      7  C5  PXY d   1      -1.037   0.264   0.302  0.00  0.00     0.003 A 
ATOM      8  C6  PXY d   1      -0.822   1.636   0.215  0.00  0.00     0.003 A 
ENDROOT
TORSDOF 0
ENDMDL
