MODEL 1
REMARK minimizedAffinity -4.22804308
REMARK minimizedRMSD -1
REMARK  0 active torsions:
REMARK  status: ('A' for Active; 'I' for Inactive)
ROOT
ATOM      1  C4' PXY d   1       0.419   3.288   0.427  0.00  0.00     0.077 C 
ATOM      2  C1' PXY d   1       0.306  -2.489   0.266  0.00  0.00     0.077 C 
ATOM      3  C1  PXY d   1       0.348  -0.974   0.311  0.00  0.00    -0.082 A 
ATOM      4  C2  PXY d   1      -0.754  -0.297   0.588  0.00  0.00     0.003 A 
ATOM      5  C3  PXY d   1      -0.741   1.074   0.601  0.00  0.00     0.003 A 
ATOM      6  C4  PXY d   1       0.425   1.758   0.381  0.00  0.00    -0.082 A 
ATOM      7  C5  PXY d   1       1.556   1.074   0.108  0.00  0.00     0.003 A 
ATOM      8  C6  PXY d   1       1.512  -0.317   0.059  0.00  0.00     0.003 A 
ENDROOT
TORSDOF 0
ENDMDL
