MODEL 1
REMARK minimizedAffinity -2.8691802
REMARK minimizedRMSD -1
REMARK  0 active torsions:
REMARK  status: ('A' for Active; 'I' for Inactive)
ROOT
ATOM      1  C4' PXY d   1      -0.382  -2.107  -0.614  0.00  0.00     0.077 C 
ATOM      2  C1' PXY d   1       0.556   3.530   0.254  0.00  0.00     0.077 C 
ATOM      3  C1  PXY d   1       0.303   2.051   0.037  0.00  0.00    -0.082 A 
ATOM      4  C2  PXY d   1       1.152   1.342  -0.688  0.00  0.00     0.003 A 
ATOM      5  C3  PXY d   1       0.922   0.010  -0.921  0.00  0.00     0.003 A 
ATOM      6  C4  PXY d   1      -0.161  -0.613  -0.361  0.00  0.00    -0.082 A 
ATOM      7  C5  PXY d   1      -1.026   0.101   0.389  0.00  0.00     0.003 A 
ATOM      8  C6  PXY d   1      -0.797   1.461   0.579  0.00  0.00     0.003 A 
ENDROOT
TORSDOF 0
ENDMDL
