MODEL 1
REMARK minimizedAffinity -0.69490236
REMARK minimizedRMSD -1
REMARK  0 active torsions:
REMARK  status: ('A' for Active; 'I' for Inactive)
ROOT
ATOM      1  C4' PXY d   1      -3.029   1.766   0.449  0.00  0.00     0.077 C 
ATOM      2  C1' PXY d   1       2.487   0.039   0.436  0.00  0.00     0.077 C 
ATOM      3  C1  PXY d   1       1.044   0.503   0.445  0.00  0.00    -0.082 A 
ATOM      4  C2  PXY d   1       0.069  -0.392   0.446  0.00  0.00     0.003 A 
ATOM      5  C3  PXY d   1      -1.241   0.011   0.422  0.00  0.00     0.003 A 
ATOM      6  C4  PXY d   1      -1.558   1.343   0.450  0.00  0.00    -0.082 A 
ATOM      7  C5  PXY d   1      -0.569   2.261   0.459  0.00  0.00     0.003 A 
ATOM      8  C6  PXY d   1       0.755   1.833   0.442  0.00  0.00     0.003 A 
ENDROOT
TORSDOF 0
ENDMDL
