MODEL 1
REMARK minimizedAffinity -3.2593143
REMARK minimizedRMSD -1
REMARK  0 active torsions:
REMARK  status: ('A' for Active; 'I' for Inactive)
ROOT
ATOM      1  C4' PXY d   1      -1.865  -3.873  -1.959  0.00  0.00     0.077 C 
ATOM      2  C1' PXY d   1       1.500   0.367   0.069  0.00  0.00     0.077 C 
ATOM      3  C1  PXY d   1       0.623  -0.744  -0.474  0.00  0.00    -0.082 A 
ATOM      4  C2  PXY d   1      -0.536  -1.006   0.107  0.00  0.00     0.003 A 
ATOM      5  C3  PXY d   1      -1.327  -2.028  -0.352  0.00  0.00     0.003 A 
ATOM      6  C4  PXY d   1      -0.952  -2.754  -1.450  0.00  0.00    -0.082 A 
ATOM      7  C5  PXY d   1       0.225  -2.486  -2.055  0.00  0.00     0.003 A 
ATOM      8  C6  PXY d   1       1.032  -1.471  -1.549  0.00  0.00     0.003 A 
ENDROOT
TORSDOF 0
ENDMDL
