MODEL 1
REMARK minimizedAffinity -4.51730394
REMARK minimizedRMSD -1
REMARK  0 active torsions:
REMARK  status: ('A' for Active; 'I' for Inactive)
ROOT
ATOM      1  C4' PXY d   1       1.601   4.563   0.010  0.00  0.00     0.077 C 
ATOM      2  C1' PXY d   1      -1.694  -0.169   0.426  0.00  0.00     0.077 C 
ATOM      3  C1  PXY d   1      -0.820   1.065   0.313  0.00  0.00    -0.082 A 
ATOM      4  C2  PXY d   1      -1.090   2.129   1.052  0.00  0.00     0.003 A 
ATOM      5  C3  PXY d   1      -0.329   3.264   0.938  0.00  0.00     0.003 A 
ATOM      6  C4  PXY d   1       0.752   3.292   0.098  0.00  0.00    -0.082 A 
ATOM      7  C5  PXY d   1       1.041   2.207  -0.651  0.00  0.00     0.003 A 
ATOM      8  C6  PXY d   1       0.231   1.079  -0.551  0.00  0.00     0.003 A 
ENDROOT
TORSDOF 0
ENDMDL
