MODEL 1
REMARK minimizedAffinity -3.42116117
REMARK minimizedRMSD -1
REMARK  0 active torsions:
REMARK  status: ('A' for Active; 'I' for Inactive)
ROOT
ATOM      1  C   UNL d   1       1.888  -1.488  -2.815  0.00  0.00     0.023 A 
ATOM      2  C1  UNL d   1       1.436  -2.455  -1.917  0.00  0.00     0.003 A 
ATOM      3  C2  UNL d   1       0.675  -2.078  -0.808  0.00  0.00     0.048 A 
ATOM      4  C3  UNL d   1       0.369  -0.733  -0.604  0.00  0.00     0.023 A 
ATOM      5  C4  UNL d   1       0.818   0.238  -1.501  0.00  0.00     0.048 A 
ATOM      6  C5  UNL d   1       1.580  -0.144  -2.607  0.00  0.00     0.003 A 
ATOM      7  I   UNL d   1      -0.764  -0.170   1.045  0.00  0.00    -0.146 I 
ENDROOT
TORSDOF 0
ENDMDL
