MODEL 1
REMARK minimizedAffinity -2.27462196
REMARK minimizedRMSD -1
REMARK  0 active torsions:
REMARK  status: ('A' for Active; 'I' for Inactive)
ROOT
ATOM      1  C   UNL d   1       1.731  -0.392  -1.449  0.00  0.00     0.023 A 
ATOM      2  C1  UNL d   1       1.331   0.907  -1.136  0.00  0.00     0.003 A 
ATOM      3  C2  UNL d   1       0.294   1.120  -0.226  0.00  0.00     0.048 A 
ATOM      4  C3  UNL d   1      -0.339   0.029   0.368  0.00  0.00     0.023 A 
ATOM      5  C4  UNL d   1       0.057  -1.273   0.059  0.00  0.00     0.048 A 
ATOM      6  C5  UNL d   1       1.094  -1.481  -0.852  0.00  0.00     0.003 A 
ATOM      7  I   UNL d   1      -1.883   0.344   1.723  0.00  0.00    -0.146 I 
ENDROOT
TORSDOF 0
ENDMDL
