MODEL 1
REMARK minimizedAffinity -2.77808356
REMARK minimizedRMSD -1
REMARK  0 active torsions:
REMARK  status: ('A' for Active; 'I' for Inactive)
ROOT
ATOM      1  C   UNL d   1       2.131  -1.500  -2.745  0.00  0.00     0.023 A 
ATOM      2  C1  UNL d   1       1.863  -0.145  -2.546  0.00  0.00     0.003 A 
ATOM      3  C2  UNL d   1       0.966   0.252  -1.553  0.00  0.00     0.048 A 
ATOM      4  C3  UNL d   1       0.341  -0.711  -0.761  0.00  0.00     0.023 A 
ATOM      5  C4  UNL d   1       0.607  -2.067  -0.955  0.00  0.00     0.048 A 
ATOM      6  C5  UNL d   1       1.504  -2.460  -1.951  0.00  0.00     0.003 A 
ATOM      7  I   UNL d   1      -0.995  -0.122   0.719  0.00  0.00    -0.146 I 
ENDROOT
TORSDOF 0
ENDMDL
