MODEL 1
REMARK minimizedAffinity -1.22596848
REMARK minimizedRMSD -1
REMARK  0 active torsions:
REMARK  status: ('A' for Active; 'I' for Inactive)
ROOT
ATOM      1  C   UNL d   1       1.390   0.353  -1.243  0.00  0.00     0.023 A 
ATOM      2  C1  UNL d   1       1.152   1.473  -0.447  0.00  0.00     0.003 A 
ATOM      3  C2  UNL d   1       0.051   1.501   0.411  0.00  0.00     0.048 A 
ATOM      4  C3  UNL d   1      -0.808   0.404   0.470  0.00  0.00     0.023 A 
ATOM      5  C4  UNL d   1      -0.574  -0.720  -0.324  0.00  0.00     0.048 A 
ATOM      6  C5  UNL d   1       0.528  -0.742  -1.182  0.00  0.00     0.003 A 
ATOM      7  I   UNL d   1      -2.447   0.443   1.747  0.00  0.00    -0.146 I 
ENDROOT
TORSDOF 0
ENDMDL
