MODEL 1
REMARK minimizedAffinity -3.60626817
REMARK minimizedRMSD -1
REMARK  0 active torsions:
REMARK  status: ('A' for Active; 'I' for Inactive)
ROOT
ATOM      1  C   UNL d   1       1.823   0.236  -2.637  0.00  0.00     0.023 A 
ATOM      2  C1  UNL d   1       2.001   0.918  -1.433  0.00  0.00     0.003 A 
ATOM      3  C2  UNL d   1       1.211   0.602  -0.326  0.00  0.00     0.048 A 
ATOM      4  C3  UNL d   1       0.245  -0.399  -0.430  0.00  0.00     0.023 A 
ATOM      5  C4  UNL d   1       0.064  -1.084  -1.632  0.00  0.00     0.048 A 
ATOM      6  C5  UNL d   1       0.856  -0.763  -2.736  0.00  0.00     0.003 A 
ATOM      7  I   UNL d   1      -0.932  -0.872   1.216  0.00  0.00    -0.146 I 
ENDROOT
TORSDOF 0
ENDMDL
