MODEL 1
REMARK minimizedAffinity -3.6828239
REMARK minimizedRMSD -1
REMARK  0 active torsions:
REMARK  status: ('A' for Active; 'I' for Inactive)
ROOT
ATOM      1  C   UNL d   1       1.293  -1.743  -2.649  0.00  0.00     0.023 A 
ATOM      2  C1  UNL d   1       1.452  -0.407  -3.018  0.00  0.00     0.003 A 
ATOM      3  C2  UNL d   1       1.382   0.598  -2.051  0.00  0.00     0.048 A 
ATOM      4  C3  UNL d   1       1.154   0.260  -0.718  0.00  0.00     0.023 A 
ATOM      5  C4  UNL d   1       0.995  -1.075  -0.344  0.00  0.00     0.048 A 
ATOM      6  C5  UNL d   1       1.065  -2.077  -1.314  0.00  0.00     0.003 A 
ATOM      7  I   UNL d   1       1.050   1.755   0.723  0.00  0.00    -0.146 I 
ENDROOT
TORSDOF 0
ENDMDL
