MODEL 1
REMARK minimizedAffinity -1.14148319
REMARK minimizedRMSD -1
REMARK  0 active torsions:
REMARK  status: ('A' for Active; 'I' for Inactive)
ROOT
ATOM      1  C   UNL d   1      -3.531   0.277   2.245  0.00  0.00     0.023 A 
ATOM      2  C1  UNL d   1      -3.674   0.474   0.871  0.00  0.00     0.003 A 
ATOM      3  C2  UNL d   1      -2.544   0.542   0.053  0.00  0.00     0.048 A 
ATOM      4  C3  UNL d   1      -1.274   0.412   0.616  0.00  0.00     0.023 A 
ATOM      5  C4  UNL d   1      -1.127   0.215   1.990  0.00  0.00     0.048 A 
ATOM      6  C5  UNL d   1      -2.259   0.148   2.803  0.00  0.00     0.003 A 
ATOM      7  I   UNL d   1       0.409   0.513  -0.600  0.00  0.00    -0.146 I 
ENDROOT
TORSDOF 0
ENDMDL
