MODEL 1
REMARK minimizedAffinity -0.569134593
REMARK minimizedRMSD -1
REMARK  0 active torsions:
REMARK  status: ('A' for Active; 'I' for Inactive)
ROOT
ATOM      1  C   UNL d   1       0.234  -2.967  -0.972  0.00  0.00     0.023 A 
ATOM      2  C1  UNL d   1       0.109  -2.712   0.393  0.00  0.00     0.003 A 
ATOM      3  C2  UNL d   1      -0.066  -1.403   0.847  0.00  0.00     0.048 A 
ATOM      4  C3  UNL d   1      -0.116  -0.354  -0.070  0.00  0.00     0.023 A 
ATOM      5  C4  UNL d   1       0.008  -0.605  -1.438  0.00  0.00     0.048 A 
ATOM      6  C5  UNL d   1       0.184  -1.915  -1.887  0.00  0.00     0.003 A 
ATOM      7  I   UNL d   1      -0.376   1.595   0.603  0.00  0.00    -0.146 I 
ENDROOT
TORSDOF 0
ENDMDL
