MODEL 1
REMARK minimizedAffinity -3.78103566
REMARK minimizedRMSD -1
REMARK  0 active torsions:
REMARK  status: ('A' for Active; 'I' for Inactive)
ROOT
ATOM      1  C   UNL d   1       1.608   0.558  -2.387  0.00  0.00     0.023 A 
ATOM      2  C1  UNL d   1       1.205   1.612  -1.568  0.00  0.00     0.003 A 
ATOM      3  C2  UNL d   1       0.320   1.380  -0.512  0.00  0.00     0.048 A 
ATOM      4  C3  UNL d   1      -0.156   0.090  -0.281  0.00  0.00     0.023 A 
ATOM      5  C4  UNL d   1       0.245  -0.969  -1.097  0.00  0.00     0.048 A 
ATOM      6  C5  UNL d   1       1.129  -0.731  -2.152  0.00  0.00     0.003 A 
ATOM      7  I   UNL d   1      -1.472  -0.259   1.290  0.00  0.00    -0.146 I 
ENDROOT
TORSDOF 0
ENDMDL
