MODEL 1
REMARK minimizedAffinity -2.52130795
REMARK minimizedRMSD -1
REMARK  0 active torsions:
REMARK  status: ('A' for Active; 'I' for Inactive)
ROOT
ATOM      1  C   UNL d   1      -0.439   0.037   1.052  0.00  0.00     0.023 A 
ATOM      2  C1  UNL d   1      -0.399  -1.081   0.218  0.00  0.00     0.003 A 
ATOM      3  C2  UNL d   1       0.350  -1.047  -0.960  0.00  0.00     0.048 A 
ATOM      4  C3  UNL d   1       1.058   0.106  -1.297  0.00  0.00     0.023 A 
ATOM      5  C4  UNL d   1       1.021   1.226  -0.465  0.00  0.00     0.048 A 
ATOM      6  C5  UNL d   1       0.270   1.188   0.711  0.00  0.00     0.003 A 
ATOM      7  I   UNL d   1       2.173   0.158  -3.050  0.00  0.00    -0.146 I 
ENDROOT
TORSDOF 0
ENDMDL
