MODEL 1
REMARK minimizedAffinity -4.46349287
REMARK minimizedRMSD -1
REMARK  0 active torsions:
REMARK  status: ('A' for Active; 'I' for Inactive)
ROOT
ATOM      1  C   UNL d   1      -0.553  -0.859   1.794  0.00  0.00     0.023 A 
ATOM      2  C1  UNL d   1      -0.322   0.409   1.259  0.00  0.00     0.003 A 
ATOM      3  C2  UNL d   1       0.162   0.541  -0.045  0.00  0.00     0.048 A 
ATOM      4  C3  UNL d   1       0.411  -0.599  -0.808  0.00  0.00     0.023 A 
ATOM      5  C4  UNL d   1       0.180  -1.870  -0.278  0.00  0.00     0.048 A 
ATOM      6  C5  UNL d   1      -0.302  -1.997   1.026  0.00  0.00     0.003 A 
ATOM      7  I   UNL d   1       1.130  -0.405  -2.749  0.00  0.00    -0.146 I 
ENDROOT
TORSDOF 0
ENDMDL
