MODEL 1
REMARK minimizedAffinity -3.07103038
REMARK minimizedRMSD -1
REMARK  0 active torsions:
REMARK  status: ('A' for Active; 'I' for Inactive)
ROOT
ATOM      1  C   UNL d   1      -2.729  -0.723   2.235  0.00  0.00     0.023 A 
ATOM      2  C1  UNL d   1      -1.489  -1.361   2.208  0.00  0.00     0.003 A 
ATOM      3  C2  UNL d   1      -0.510  -0.950   1.301  0.00  0.00     0.048 A 
ATOM      4  C3  UNL d   1      -0.778   0.101   0.424  0.00  0.00     0.023 A 
ATOM      5  C4  UNL d   1      -2.017   0.743   0.448  0.00  0.00     0.048 A 
ATOM      6  C5  UNL d   1      -2.993   0.328   1.356  0.00  0.00     0.003 A 
ATOM      7  I   UNL d   1       0.677   0.716  -0.926  0.00  0.00    -0.146 I 
ENDROOT
TORSDOF 0
ENDMDL
