MODEL 1
REMARK minimizedAffinity -2.6553781
REMARK minimizedRMSD -1
REMARK  0 active torsions:
REMARK  status: ('A' for Active; 'I' for Inactive)
ROOT
ATOM      1  C   UNL d   1       1.725   0.067  -2.439  0.00  0.00     0.023 A 
ATOM      2  C1  UNL d   1       1.763   1.101  -1.503  0.00  0.00     0.003 A 
ATOM      3  C2  UNL d   1       0.996   1.020  -0.340  0.00  0.00     0.048 A 
ATOM      4  C3  UNL d   1       0.193  -0.098  -0.117  0.00  0.00     0.023 A 
ATOM      5  C4  UNL d   1       0.152  -1.136  -1.049  0.00  0.00     0.048 A 
ATOM      6  C5  UNL d   1       0.921  -1.050  -2.212  0.00  0.00     0.003 A 
ATOM      7  I   UNL d   1      -0.949  -0.221   1.615  0.00  0.00    -0.146 I 
ENDROOT
TORSDOF 0
ENDMDL
