MODEL 1
REMARK minimizedAffinity 7.4951148
REMARK minimizedRMSD -1
REMARK  0 active torsions:
REMARK  status: ('A' for Active; 'I' for Inactive)
ROOT
ATOM      1  C   UNL d   1       0.236  -0.046   2.351  0.00  0.00     0.078 C 
ATOM      2  C1  UNL d   1       1.148   0.104   1.170  0.00  0.00    -0.077 A 
ATOM      3  C2  UNL d   1       2.090  -0.883   0.856  0.00  0.00    -0.001 A 
ATOM      4  C3  UNL d   1       2.939  -0.725  -0.241  0.00  0.00     0.003 A 
ATOM      5  C4  UNL d   1       2.855   0.419  -1.032  0.00  0.00    -0.005 A 
ATOM      6  C5  UNL d   1       1.921   1.408  -0.726  0.00  0.00     0.003 A 
ATOM      7  C6  UNL d   1       1.072   1.251   0.370  0.00  0.00    -0.001 A 
ENDROOT
TORSDOF 0
ENDMDL
