MODEL 1
REMARK minimizedAffinity 4.31124306
REMARK minimizedRMSD -1
REMARK  0 active torsions:
REMARK  status: ('A' for Active; 'I' for Inactive)
ROOT
ATOM      1  C   UNL d   1       2.236  -2.585   4.976  0.00  0.00     0.078 C 
ATOM      2  C1  UNL d   1       1.462  -1.542   4.227  0.00  0.00    -0.077 A 
ATOM      3  C2  UNL d   1       0.127  -1.757   3.864  0.00  0.00    -0.001 A 
ATOM      4  C3  UNL d   1      -0.579  -0.782   3.158  0.00  0.00     0.003 A 
ATOM      5  C4  UNL d   1       0.042   0.415   2.807  0.00  0.00    -0.005 A 
ATOM      6  C5  UNL d   1       1.371   0.637   3.161  0.00  0.00     0.003 A 
ATOM      7  C6  UNL d   1       2.079  -0.337   3.867  0.00  0.00    -0.001 A 
ENDROOT
TORSDOF 0
ENDMDL
