MODEL 1
REMARK minimizedAffinity 2.2339294
REMARK minimizedRMSD -1
REMARK  0 active torsions:
REMARK  status: ('A' for Active; 'I' for Inactive)
ROOT
ATOM      1  C   UNL d   1       2.103  -0.485   1.079  0.00  0.00     0.078 C 
ATOM      2  C1  UNL d   1       1.130   0.286   1.922  0.00  0.00    -0.077 A 
ATOM      3  C2  UNL d   1      -0.205  -0.121   2.037  0.00  0.00    -0.001 A 
ATOM      4  C3  UNL d   1      -1.101   0.611   2.817  0.00  0.00     0.003 A 
ATOM      5  C4  UNL d   1      -0.673   1.756   3.487  0.00  0.00    -0.005 A 
ATOM      6  C5  UNL d   1       0.653   2.169   3.377  0.00  0.00     0.003 A 
ATOM      7  C6  UNL d   1       1.551   1.438   2.597  0.00  0.00    -0.001 A 
ENDROOT
TORSDOF 0
ENDMDL
