MODEL 1
REMARK minimizedAffinity 3.5820837
REMARK minimizedRMSD -1
REMARK  0 active torsions:
REMARK  status: ('A' for Active; 'I' for Inactive)
ROOT
ATOM      1  C   UNL d   1       2.645   3.667   0.252  0.00  0.00     0.078 C 
ATOM      2  C1  UNL d   1       2.234   2.249  -0.009  0.00  0.00    -0.077 A 
ATOM      3  C2  UNL d   1       2.092   1.334   1.042  0.00  0.00    -0.001 A 
ATOM      4  C3  UNL d   1       1.718   0.014   0.783  0.00  0.00     0.003 A 
ATOM      5  C4  UNL d   1       1.485  -0.403  -0.526  0.00  0.00    -0.005 A 
ATOM      6  C5  UNL d   1       1.626   0.499  -1.578  0.00  0.00     0.003 A 
ATOM      7  C6  UNL d   1       2.000   1.819  -1.321  0.00  0.00    -0.001 A 
ENDROOT
TORSDOF 0
ENDMDL
