MODEL 1
REMARK minimizedAffinity 3.35876751
REMARK minimizedRMSD -1
REMARK  0 active torsions:
REMARK  status: ('A' for Active; 'I' for Inactive)
ROOT
ATOM      1  C   UNL d   1      -1.103  -2.850  -1.029  0.00  0.00     0.078 C 
ATOM      2  C1  UNL d   1      -1.295  -3.531  -2.351  0.00  0.00    -0.077 A 
ATOM      3  C2  UNL d   1      -1.853  -2.849  -3.439  0.00  0.00    -0.001 A 
ATOM      4  C3  UNL d   1      -2.034  -3.498  -4.661  0.00  0.00     0.003 A 
ATOM      5  C4  UNL d   1      -1.662  -4.833  -4.806  0.00  0.00    -0.005 A 
ATOM      6  C5  UNL d   1      -1.109  -5.521  -3.728  0.00  0.00     0.003 A 
ATOM      7  C6  UNL d   1      -0.926  -4.873  -2.506  0.00  0.00    -0.001 A 
ENDROOT
TORSDOF 0
ENDMDL
