MODEL 1
REMARK minimizedAffinity 9.79318714
REMARK minimizedRMSD -1
REMARK  0 active torsions:
REMARK  status: ('A' for Active; 'I' for Inactive)
ROOT
ATOM      1  C   UNL d   1       2.391   2.728  -0.413  0.00  0.00     0.078 C 
ATOM      2  C1  UNL d   1       2.229   1.311   0.050  0.00  0.00    -0.077 A 
ATOM      3  C2  UNL d   1       1.722   0.326  -0.807  0.00  0.00    -0.001 A 
ATOM      4  C3  UNL d   1       1.567  -0.987  -0.360  0.00  0.00     0.003 A 
ATOM      5  C4  UNL d   1       1.915  -1.327   0.945  0.00  0.00    -0.005 A 
ATOM      6  C5  UNL d   1       2.419  -0.354   1.806  0.00  0.00     0.003 A 
ATOM      7  C6  UNL d   1       2.574   0.960   1.361  0.00  0.00    -0.001 A 
ENDROOT
TORSDOF 0
ENDMDL
