MODEL 1
REMARK minimizedAffinity -3.43230772
REMARK minimizedRMSD -1
REMARK  0 active torsions:
REMARK  status: ('A' for Active; 'I' for Inactive)
ROOT
ATOM      1  C   UNL d   1      -1.103   0.341   0.200  0.00  0.00     0.172 C 
ATOM      2  N   UNL d   1       0.093  -0.297  -0.296  0.00  0.00    -0.070 N 
ATOM      3  C1  UNL d   1       0.204  -1.612  -0.661  0.00  0.00    -0.004 A 
ATOM      4  C2  UNL d   1       1.500  -1.828  -1.077  0.00  0.00    -0.047 A 
ATOM      5  C3  UNL d   1       2.193  -0.599  -0.957  0.00  0.00    -0.047 A 
ATOM      6  C4  UNL d   1       1.298   0.331  -0.471  0.00  0.00    -0.004 A 
ENDROOT
TORSDOF 0
ENDMDL
