MODEL 1
REMARK minimizedAffinity -3.5876503
REMARK minimizedRMSD -1
REMARK  0 active torsions:
REMARK  status: ('A' for Active; 'I' for Inactive)
ROOT
ATOM      1  C   UNL d   1       0.610   1.646  -1.881  0.00  0.00     0.172 C 
ATOM      2  N   UNL d   1       0.719   0.296  -1.380  0.00  0.00    -0.070 N 
ATOM      3  C1  UNL d   1      -0.088  -0.270  -0.429  0.00  0.00    -0.004 A 
ATOM      4  C2  UNL d   1       0.340  -1.565  -0.230  0.00  0.00    -0.047 A 
ATOM      5  C3  UNL d   1       1.442  -1.784  -1.090  0.00  0.00    -0.047 A 
ATOM      6  C4  UNL d   1       1.655  -0.616  -1.790  0.00  0.00    -0.004 A 
ENDROOT
TORSDOF 0
ENDMDL
