MODEL 1
REMARK minimizedAffinity -3.65412593
REMARK minimizedRMSD -1
REMARK  0 active torsions:
REMARK  status: ('A' for Active; 'I' for Inactive)
ROOT
ATOM      1  C   UNL d   1       3.027  -0.073  -1.900  0.00  0.00     0.172 C 
ATOM      2  N   UNL d   1       1.819  -0.490  -1.228  0.00  0.00    -0.070 N 
ATOM      3  C1  UNL d   1       0.869   0.344  -0.702  0.00  0.00    -0.004 A 
ATOM      4  C2  UNL d   1      -0.122  -0.439  -0.151  0.00  0.00    -0.047 A 
ATOM      5  C3  UNL d   1       0.245  -1.791  -0.352  0.00  0.00    -0.047 A 
ATOM      6  C4  UNL d   1       1.451  -1.793  -1.022  0.00  0.00    -0.004 A 
ENDROOT
TORSDOF 0
ENDMDL
