MODEL 1
REMARK minimizedAffinity -3.45982218
REMARK minimizedRMSD -1
REMARK  0 active torsions:
REMARK  status: ('A' for Active; 'I' for Inactive)
ROOT
ATOM      1  C   UNL d   1      -0.541   0.375   0.534  0.00  0.00     0.172 C 
ATOM      2  N   UNL d   1       0.444  -0.325  -0.256  0.00  0.00    -0.070 N 
ATOM      3  C1  UNL d   1       1.724   0.099  -0.496  0.00  0.00    -0.004 A 
ATOM      4  C2  UNL d   1       2.340  -0.845  -1.288  0.00  0.00    -0.047 A 
ATOM      5  C3  UNL d   1       1.398  -1.872  -1.534  0.00  0.00    -0.047 A 
ATOM      6  C4  UNL d   1       0.233  -1.525  -0.883  0.00  0.00    -0.004 A 
ENDROOT
TORSDOF 0
ENDMDL
