MODEL 1
REMARK minimizedAffinity -1.77324378
REMARK minimizedRMSD -1
REMARK  0 active torsions:
REMARK  status: ('A' for Active; 'I' for Inactive)
ROOT
ATOM      1  C   UNL d   1      -0.637   0.034   0.384  0.00  0.00     0.172 C 
ATOM      2  N   UNL d   1       0.372  -0.456  -0.526  0.00  0.00    -0.070 N 
ATOM      3  C1  UNL d   1       0.950  -1.697  -0.485  0.00  0.00    -0.004 A 
ATOM      4  C2  UNL d   1       1.859  -1.774  -1.518  0.00  0.00    -0.047 A 
ATOM      5  C3  UNL d   1       1.827  -0.536  -2.204  0.00  0.00    -0.047 A 
ATOM      6  C4  UNL d   1       0.898   0.261  -1.568  0.00  0.00    -0.004 A 
ENDROOT
TORSDOF 0
ENDMDL
