MODEL 1
REMARK minimizedAffinity -3.40633583
REMARK minimizedRMSD -1
REMARK  0 active torsions:
REMARK  status: ('A' for Active; 'I' for Inactive)
ROOT
ATOM      1  C   UNL d   1      -0.965  -0.014   0.116  0.00  0.00     0.172 C 
ATOM      2  N   UNL d   1       0.238  -0.520  -0.501  0.00  0.00    -0.070 N 
ATOM      3  C1  UNL d   1       0.784  -0.071  -1.674  0.00  0.00    -0.004 A 
ATOM      4  C2  UNL d   1       1.923  -0.807  -1.919  0.00  0.00    -0.047 A 
ATOM      5  C3  UNL d   1       2.066  -1.732  -0.858  0.00  0.00    -0.047 A 
ATOM      6  C4  UNL d   1       1.010  -1.532   0.006  0.00  0.00    -0.004 A 
ENDROOT
TORSDOF 0
ENDMDL
