MODEL 1
REMARK minimizedAffinity -3.68585372
REMARK minimizedRMSD -1
REMARK  0 active torsions:
REMARK  status: ('A' for Active; 'I' for Inactive)
ROOT
ATOM      1  C   UNL d   1       2.631   0.326  -2.107  0.00  0.00     0.172 C 
ATOM      2  N   UNL d   1       1.637  -0.276  -1.250  0.00  0.00    -0.070 N 
ATOM      3  C1  UNL d   1       0.690   0.400  -0.529  0.00  0.00    -0.004 A 
ATOM      4  C2  UNL d   1      -0.063  -0.531   0.155  0.00  0.00    -0.047 A 
ATOM      5  C3  UNL d   1       0.451  -1.810  -0.166  0.00  0.00    -0.047 A 
ATOM      6  C4  UNL d   1       1.503  -1.623  -1.038  0.00  0.00    -0.004 A 
ENDROOT
TORSDOF 0
ENDMDL
