MODEL 1
REMARK minimizedAffinity -2.97618389
REMARK minimizedRMSD -1
REMARK  0 active torsions:
REMARK  status: ('A' for Active; 'I' for Inactive)
ROOT
ATOM      1  C   UNL d   1      -0.679   0.486   0.687  0.00  0.00     0.172 C 
ATOM      2  N   UNL d   1       0.335   0.124  -0.275  0.00  0.00    -0.070 N 
ATOM      3  C1  UNL d   1       0.672   0.846  -1.389  0.00  0.00    -0.004 A 
ATOM      4  C2  UNL d   1       1.679   0.168  -2.042  0.00  0.00    -0.047 A 
ATOM      5  C3  UNL d   1       1.955  -1.002  -1.296  0.00  0.00    -0.047 A 
ATOM      6  C4  UNL d   1       1.109  -1.004  -0.207  0.00  0.00    -0.004 A 
ENDROOT
TORSDOF 0
ENDMDL
