MODEL 1
REMARK minimizedAffinity -1.29576278
REMARK minimizedRMSD -1
REMARK  0 active torsions:
REMARK  status: ('A' for Active; 'I' for Inactive)
ROOT
ATOM      1  C   UNL d   1      -0.754   0.317   0.083  0.00  0.00     0.172 C 
ATOM      2  N   UNL d   1       0.107  -0.773  -0.312  0.00  0.00    -0.070 N 
ATOM      3  C1  UNL d   1       1.298  -0.648  -0.976  0.00  0.00    -0.004 A 
ATOM      4  C2  UNL d   1       1.810  -1.914  -1.165  0.00  0.00    -0.047 A 
ATOM      5  C3  UNL d   1       0.895  -2.831  -0.596  0.00  0.00    -0.047 A 
ATOM      6  C4  UNL d   1      -0.150  -2.097  -0.075  0.00  0.00    -0.004 A 
ENDROOT
TORSDOF 0
ENDMDL
