MODEL 1
REMARK minimizedAffinity -3.33642197
REMARK minimizedRMSD -1
REMARK  0 active torsions:
REMARK  status: ('A' for Active; 'I' for Inactive)
ROOT
ATOM      1  C   UNL d   1      -2.180   2.033   2.788  0.00  0.00     0.172 C 
ATOM      2  N   UNL d   1      -2.406   0.629   3.042  0.00  0.00    -0.070 N 
ATOM      3  C1  UNL d   1      -2.351   0.021   4.267  0.00  0.00    -0.004 A 
ATOM      4  C2  UNL d   1      -2.625  -1.318   4.087  0.00  0.00    -0.047 A 
ATOM      5  C3  UNL d   1      -2.850  -1.521   2.704  0.00  0.00    -0.047 A 
ATOM      6  C4  UNL d   1      -2.708  -0.299   2.081  0.00  0.00    -0.004 A 
ENDROOT
TORSDOF 0
ENDMDL
