MODEL 1
REMARK minimizedAffinity -3.48489428
REMARK minimizedRMSD -1
REMARK  0 active torsions:
REMARK  status: ('A' for Active; 'I' for Inactive)
ROOT
ATOM      1  C   UNL d   1       3.144  -0.196  -1.166  0.00  0.00     0.172 C 
ATOM      2  N   UNL d   1       1.831  -0.580  -0.706  0.00  0.00    -0.070 N 
ATOM      3  C1  UNL d   1       1.291  -1.836  -0.789  0.00  0.00    -0.004 A 
ATOM      4  C2  UNL d   1       0.027  -1.790  -0.242  0.00  0.00    -0.047 A 
ATOM      5  C3  UNL d   1      -0.201  -0.460   0.185  0.00  0.00    -0.047 A 
ATOM      6  C4  UNL d   1       0.931   0.267  -0.114  0.00  0.00    -0.004 A 
ENDROOT
TORSDOF 0
ENDMDL
