MODEL 1
REMARK minimizedAffinity -3.2663753
REMARK minimizedRMSD -1
REMARK  0 active torsions:
REMARK  status: ('A' for Active; 'I' for Inactive)
ROOT
ATOM      1  C   UNL d   1      -0.065  -1.878   0.009  0.00  0.00     0.172 C 
ATOM      2  N   UNL d   1       0.831  -0.936  -0.619  0.00  0.00    -0.070 N 
ATOM      3  C1  UNL d   1       1.844  -1.252  -1.484  0.00  0.00    -0.004 A 
ATOM      4  C2  UNL d   1       2.461  -0.078  -1.859  0.00  0.00    -0.047 A 
ATOM      5  C3  UNL d   1       1.796   0.981  -1.194  0.00  0.00    -0.047 A 
ATOM      6  C4  UNL d   1       0.791   0.421  -0.433  0.00  0.00    -0.004 A 
ENDROOT
TORSDOF 0
ENDMDL
