MODEL 1
REMARK minimizedAffinity 5.81771994
REMARK minimizedRMSD -1
REMARK  0 active torsions:
REMARK  status: ('A' for Active; 'I' for Inactive)
ROOT
ATOM      1  C   UNL d   1       1.615  -2.443  -2.284  0.00  0.00     0.172 C 
ATOM      2  N   UNL d   1       0.846  -2.100  -1.111  0.00  0.00    -0.070 N 
ATOM      3  C1  UNL d   1      -0.451  -1.660  -1.108  0.00  0.00    -0.004 A 
ATOM      4  C2  UNL d   1      -0.820  -1.444   0.202  0.00  0.00    -0.047 A 
ATOM      5  C3  UNL d   1       0.293  -1.765   1.014  0.00  0.00    -0.047 A 
ATOM      6  C4  UNL d   1       1.311  -2.168   0.175  0.00  0.00    -0.004 A 
ENDROOT
TORSDOF 0
ENDMDL
