MODEL 1
REMARK minimizedAffinity -3.68456197
REMARK minimizedRMSD -1
REMARK  0 active torsions:
REMARK  status: ('A' for Active; 'I' for Inactive)
ROOT
ATOM      1  C   UNL d   1      -0.528  -1.001  -0.516  0.00  0.00     0.172 C 
ATOM      2  N   UNL d   1       0.844  -0.687  -0.840  0.00  0.00    -0.070 N 
ATOM      3  C1  UNL d   1       1.683  -1.462  -1.596  0.00  0.00    -0.004 A 
ATOM      4  C2  UNL d   1       2.898  -0.817  -1.673  0.00  0.00    -0.047 A 
ATOM      5  C3  UNL d   1       2.786   0.387  -0.937  0.00  0.00    -0.047 A 
ATOM      6  C4  UNL d   1       1.504   0.442  -0.433  0.00  0.00    -0.004 A 
ENDROOT
TORSDOF 0
ENDMDL
