MODEL 1
REMARK minimizedAffinity -0.0275878888
REMARK minimizedRMSD -1
REMARK  0 active torsions:
REMARK  status: ('A' for Active; 'I' for Inactive)
ROOT
ATOM      1  C   UNL d   1      -4.409  -1.835   3.930  0.00  0.00     0.172 C 
ATOM      2  N   UNL d   1      -3.649  -0.648   3.615  0.00  0.00    -0.070 N 
ATOM      3  C1  UNL d   1      -2.404  -0.625   3.047  0.00  0.00    -0.004 A 
ATOM      4  C2  UNL d   1      -2.027   0.694   2.909  0.00  0.00    -0.047 A 
ATOM      5  C3  UNL d   1      -3.082   1.490   3.413  0.00  0.00    -0.047 A 
ATOM      6  C4  UNL d   1      -4.074   0.634   3.843  0.00  0.00    -0.004 A 
ENDROOT
TORSDOF 0
ENDMDL
