MODEL 1
REMARK minimizedAffinity -1.15544188
REMARK minimizedRMSD -1
REMARK  0 active torsions:
REMARK  status: ('A' for Active; 'I' for Inactive)
ROOT
ATOM      1  C   UNL d   1      -0.647  -0.010   0.601  0.00  0.00     0.172 C 
ATOM      2  N   UNL d   1       0.261  -0.907  -0.076  0.00  0.00    -0.070 N 
ATOM      3  C1  UNL d   1       1.627  -0.829  -0.049  0.00  0.00    -0.004 A 
ATOM      4  C2  UNL d   1       2.124  -1.862  -0.815  0.00  0.00    -0.047 A 
ATOM      5  C3  UNL d   1       1.017  -2.585  -1.320  0.00  0.00    -0.047 A 
ATOM      6  C4  UNL d   1      -0.124  -1.972  -0.846  0.00  0.00    -0.004 A 
ENDROOT
TORSDOF 0
ENDMDL
