MODEL 1
REMARK minimizedAffinity -3.10535908
REMARK minimizedRMSD -1
REMARK  0 active torsions:
REMARK  status: ('A' for Active; 'I' for Inactive)
ROOT
ATOM      1  C   UNL d   1      -0.717   0.164   0.441  0.00  0.00     0.172 C 
ATOM      2  N   UNL d   1       0.414  -0.555  -0.098  0.00  0.00    -0.070 N 
ATOM      3  C1  UNL d   1       0.597  -1.911  -0.043  0.00  0.00    -0.004 A 
ATOM      4  C2  UNL d   1       1.792  -2.201  -0.666  0.00  0.00    -0.047 A 
ATOM      5  C3  UNL d   1       2.346  -0.976  -1.109  0.00  0.00    -0.047 A 
ATOM      6  C4  UNL d   1       1.473   0.026  -0.744  0.00  0.00    -0.004 A 
ENDROOT
TORSDOF 0
ENDMDL
