MODEL 1
REMARK minimizedAffinity 4.90882778
REMARK minimizedRMSD -1
REMARK  0 active torsions:
REMARK  status: ('A' for Active; 'I' for Inactive)
ROOT
ATOM      1  C   UNL d   1      -0.064   2.279   2.502  0.00  0.00     0.172 C 
ATOM      2  N   UNL d   1      -1.145   1.440   2.041  0.00  0.00    -0.070 N 
ATOM      3  C1  UNL d   1      -1.129   0.071   1.994  0.00  0.00    -0.004 A 
ATOM      4  C2  UNL d   1      -2.344  -0.348   1.497  0.00  0.00    -0.047 A 
ATOM      5  C3  UNL d   1      -3.117   0.808   1.235  0.00  0.00    -0.047 A 
ATOM      6  C4  UNL d   1      -2.350   1.901   1.581  0.00  0.00    -0.004 A 
ENDROOT
TORSDOF 0
ENDMDL
