MODEL 1
REMARK minimizedAffinity 7.81697941
REMARK minimizedRMSD -1
REMARK  0 active torsions:
REMARK  status: ('A' for Active; 'I' for Inactive)
ROOT
ATOM      1  C   UNL d   1      -3.954   1.448   0.390  0.00  0.00     0.172 C 
ATOM      2  N   UNL d   1      -2.873   0.911   1.183  0.00  0.00    -0.070 N 
ATOM      3  C1  UNL d   1      -2.934  -0.216   1.958  0.00  0.00    -0.004 A 
ATOM      4  C2  UNL d   1      -1.702  -0.389   2.550  0.00  0.00    -0.047 A 
ATOM      5  C3  UNL d   1      -0.871   0.671   2.116  0.00  0.00    -0.047 A 
ATOM      6  C4  UNL d   1      -1.621   1.461   1.270  0.00  0.00    -0.004 A 
ENDROOT
TORSDOF 0
ENDMDL
