MODEL 1
REMARK minimizedAffinity 0.335320413
REMARK minimizedRMSD -1
REMARK  0 active torsions:
REMARK  status: ('A' for Active; 'I' for Inactive)
ROOT
ATOM      1  C   UNL d   1      -4.425  -5.988  -1.475  0.00  0.00     0.172 C 
ATOM      2  N   UNL d   1      -4.825  -4.897  -0.618  0.00  0.00    -0.070 N 
ATOM      3  C1  UNL d   1      -5.998  -4.822   0.084  0.00  0.00    -0.004 A 
ATOM      4  C2  UNL d   1      -6.000  -3.630   0.776  0.00  0.00    -0.047 A 
ATOM      5  C3  UNL d   1      -4.786  -2.966   0.479  0.00  0.00    -0.047 A 
ATOM      6  C4  UNL d   1      -4.078  -3.772  -0.387  0.00  0.00    -0.004 A 
ENDROOT
TORSDOF 0
ENDMDL
