MODEL 1
REMARK minimizedAffinity -3.37627602
REMARK minimizedRMSD -1
REMARK  0 active torsions:
REMARK  status: ('A' for Active; 'I' for Inactive)
ROOT
ATOM      1  C   UNL d   1      -4.921  -1.032  -3.748  0.00  0.00     0.172 C 
ATOM      2  N   UNL d   1      -3.734  -1.160  -2.937  0.00  0.00    -0.070 N 
ATOM      3  C1  UNL d   1      -2.817  -2.174  -3.017  0.00  0.00    -0.004 A 
ATOM      4  C2  UNL d   1      -1.837  -1.933  -2.079  0.00  0.00    -0.047 A 
ATOM      5  C3  UNL d   1      -2.177  -0.732  -1.411  0.00  0.00    -0.047 A 
ATOM      6  C4  UNL d   1      -3.355  -0.275  -1.962  0.00  0.00    -0.004 A 
ENDROOT
TORSDOF 0
ENDMDL
