MODEL 1
REMARK minimizedAffinity -1.34528124
REMARK minimizedRMSD -1
REMARK  0 active torsions:
REMARK  status: ('A' for Active; 'I' for Inactive)
ROOT
ATOM      1  C   UNL d   1      -2.348   0.148  -1.383  0.00  0.00     0.172 C 
ATOM      2  N   UNL d   1      -0.964   0.318  -1.009  0.00  0.00    -0.070 N 
ATOM      3  C1  UNL d   1       0.049   0.701  -1.847  0.00  0.00    -0.004 A 
ATOM      4  C2  UNL d   1       1.213   0.746  -1.110  0.00  0.00    -0.047 A 
ATOM      5  C3  UNL d   1       0.888   0.375   0.217  0.00  0.00    -0.047 A 
ATOM      6  C4  UNL d   1      -0.465   0.116   0.251  0.00  0.00    -0.004 A 
ENDROOT
TORSDOF 0
ENDMDL
