MODEL 1
REMARK minimizedAffinity -2.05094218
REMARK minimizedRMSD -1
REMARK  0 active torsions:
REMARK  status: ('A' for Active; 'I' for Inactive)
ROOT
ATOM      1  C   UNL d   1      -1.163  -2.709  -2.239  0.00  0.00     0.172 C 
ATOM      2  N   UNL d   1      -1.841  -3.913  -1.820  0.00  0.00    -0.070 N 
ATOM      3  C1  UNL d   1      -1.845  -5.104  -2.497  0.00  0.00    -0.004 A 
ATOM      4  C2  UNL d   1      -2.601  -5.999  -1.772  0.00  0.00    -0.047 A 
ATOM      5  C3  UNL d   1      -3.069  -5.323  -0.620  0.00  0.00    -0.047 A 
ATOM      6  C4  UNL d   1      -2.584  -4.033  -0.675  0.00  0.00    -0.004 A 
ENDROOT
TORSDOF 0
ENDMDL
