MODEL 1
REMARK minimizedAffinity -3.30820251
REMARK minimizedRMSD -1
REMARK  0 active torsions:
REMARK  status: ('A' for Active; 'I' for Inactive)
ROOT
ATOM      1  C   UNL d   1      -2.204   0.294  -1.235  0.00  0.00     0.172 C 
ATOM      2  N   UNL d   1      -1.014  -0.142  -1.929  0.00  0.00    -0.070 N 
ATOM      3  C1  UNL d   1       0.218   0.451  -1.851  0.00  0.00    -0.004 A 
ATOM      4  C2  UNL d   1       1.081  -0.261  -2.655  0.00  0.00    -0.047 A 
ATOM      5  C3  UNL d   1       0.342  -1.318  -3.238  0.00  0.00    -0.047 A 
ATOM      6  C4  UNL d   1      -0.952  -1.220  -2.771  0.00  0.00    -0.004 A 
ENDROOT
TORSDOF 0
ENDMDL
