MODEL 1
REMARK minimizedAffinity -0.498990744
REMARK minimizedRMSD -1
REMARK  0 active torsions:
REMARK  status: ('A' for Active; 'I' for Inactive)
ROOT
ATOM      1  C   UNL d   1       0.869   0.612  -0.479  0.00  0.00     0.172 C 
ATOM      2  N   UNL d   1       0.805  -0.429  -1.477  0.00  0.00    -0.070 N 
ATOM      3  C1  UNL d   1       1.800  -0.748  -2.363  0.00  0.00    -0.004 A 
ATOM      4  C2  UNL d   1       1.351  -1.792  -3.143  0.00  0.00    -0.047 A 
ATOM      5  C3  UNL d   1       0.041  -2.110  -2.712  0.00  0.00    -0.047 A 
ATOM      6  C4  UNL d   1      -0.272  -1.251  -1.680  0.00  0.00    -0.004 A 
ENDROOT
TORSDOF 0
ENDMDL
