MODEL 1
REMARK minimizedAffinity -3.73993683
REMARK minimizedRMSD -1
REMARK  0 active torsions:
REMARK  status: ('A' for Active; 'I' for Inactive)
ROOT
ATOM      1  C   UNL d   1      -1.491  -0.182  -1.051  0.00  0.00     0.172 C 
ATOM      2  N   UNL d   1      -1.306  -0.252   0.380  0.00  0.00    -0.070 N 
ATOM      3  C1  UNL d   1      -0.110  -0.426   1.023  0.00  0.00    -0.004 A 
ATOM      4  C2  UNL d   1      -0.357  -0.438   2.378  0.00  0.00    -0.047 A 
ATOM      5  C3  UNL d   1      -1.750  -0.266   2.556  0.00  0.00    -0.047 A 
ATOM      6  C4  UNL d   1      -2.314  -0.153   1.303  0.00  0.00    -0.004 A 
ENDROOT
TORSDOF 0
ENDMDL
