MODEL 1
REMARK minimizedAffinity -3.11697221
REMARK minimizedRMSD -1
REMARK  0 active torsions:
REMARK  status: ('A' for Active; 'I' for Inactive)
ROOT
ATOM      1  C   UNL d   1      -2.325  -0.105  -1.500  0.00  0.00     0.172 C 
ATOM      2  N   UNL d   1      -1.789  -1.245  -2.208  0.00  0.00    -0.070 N 
ATOM      3  C1  UNL d   1      -2.119  -2.554  -1.978  0.00  0.00    -0.004 A 
ATOM      4  C2  UNL d   1      -1.396  -3.332  -2.856  0.00  0.00    -0.047 A 
ATOM      5  C3  UNL d   1      -0.604  -2.460  -3.640  0.00  0.00    -0.047 A 
ATOM      6  C4  UNL d   1      -0.867  -1.174  -3.218  0.00  0.00    -0.004 A 
ENDROOT
TORSDOF 0
ENDMDL
