MODEL 1
REMARK minimizedAffinity 0.705334187
REMARK minimizedRMSD -1
REMARK  0 active torsions:
REMARK  status: ('A' for Active; 'I' for Inactive)
ROOT
ATOM      1  C   UNL d   1       0.507   0.326  -0.836  0.00  0.00     0.172 C 
ATOM      2  N   UNL d   1       1.139  -0.337  -1.953  0.00  0.00    -0.070 N 
ATOM      3  C1  UNL d   1       0.883  -1.615  -2.371  0.00  0.00    -0.004 A 
ATOM      4  C2  UNL d   1       1.686  -1.871  -3.462  0.00  0.00    -0.047 A 
ATOM      5  C3  UNL d   1       2.451  -0.706  -3.706  0.00  0.00    -0.047 A 
ATOM      6  C4  UNL d   1       2.093   0.228  -2.758  0.00  0.00    -0.004 A 
ENDROOT
TORSDOF 0
ENDMDL
