MODEL 1
REMARK minimizedAffinity -3.62304449
REMARK minimizedRMSD -1
REMARK  0 active torsions:
REMARK  status: ('A' for Active; 'I' for Inactive)
ROOT
ATOM      1  C   UNL d   1      -0.870  -0.110   2.979  0.00  0.00     0.172 C 
ATOM      2  N   UNL d   1      -0.813   0.188   1.568  0.00  0.00    -0.070 N 
ATOM      3  C1  UNL d   1      -1.877   0.180   0.706  0.00  0.00    -0.004 A 
ATOM      4  C2  UNL d   1      -1.410   0.518  -0.545  0.00  0.00    -0.047 A 
ATOM      5  C3  UNL d   1      -0.016   0.735  -0.433  0.00  0.00    -0.047 A 
ATOM      6  C4  UNL d   1       0.327   0.524   0.886  0.00  0.00    -0.004 A 
ENDROOT
TORSDOF 0
ENDMDL
