MODEL 1
REMARK minimizedAffinity -2.23688769
REMARK minimizedRMSD -1
REMARK  0 active torsions:
REMARK  status: ('A' for Active; 'I' for Inactive)
ROOT
ATOM      1  C   UNL d   1      -0.172   0.244   3.016  0.00  0.00     0.172 C 
ATOM      2  N   UNL d   1      -0.005   0.375   1.587  0.00  0.00    -0.070 N 
ATOM      3  C1  UNL d   1       1.190   0.362   0.919  0.00  0.00    -0.004 A 
ATOM      4  C2  UNL d   1       0.924   0.513  -0.425  0.00  0.00    -0.047 A 
ATOM      5  C3  UNL d   1      -0.480   0.623  -0.569  0.00  0.00    -0.047 A 
ATOM      6  C4  UNL d   1      -1.030   0.534   0.693  0.00  0.00    -0.004 A 
ENDROOT
TORSDOF 0
ENDMDL
