MODEL 1
REMARK minimizedAffinity -3.97470427
REMARK minimizedRMSD -1
REMARK  0 active torsions:
REMARK  status: ('A' for Active; 'I' for Inactive)
ROOT
ATOM      1  C   UNL d   1       0.237  -0.006   1.231  0.00  0.00     0.172 C 
ATOM      2  N   UNL d   1      -1.110  -0.194   0.746  0.00  0.00    -0.070 N 
ATOM      3  C1  UNL d   1      -2.104  -0.877   1.394  0.00  0.00    -0.004 A 
ATOM      4  C2  UNL d   1      -3.234  -0.828   0.606  0.00  0.00    -0.047 A 
ATOM      5  C3  UNL d   1      -2.907  -0.091  -0.557  0.00  0.00    -0.047 A 
ATOM      6  C4  UNL d   1      -1.586   0.289  -0.444  0.00  0.00    -0.004 A 
ENDROOT
TORSDOF 0
ENDMDL
