MODEL 1
REMARK minimizedAffinity -3.71235919
REMARK minimizedRMSD -1
REMARK  0 active torsions:
REMARK  status: ('A' for Active; 'I' for Inactive)
ROOT
ATOM      1  C   UNL d   1      -0.701  -0.267   2.861  0.00  0.00     0.172 C 
ATOM      2  N   UNL d   1      -0.697   0.047   1.452  0.00  0.00    -0.070 N 
ATOM      3  C1  UNL d   1       0.413   0.318   0.697  0.00  0.00    -0.004 A 
ATOM      4  C2  UNL d   1      -0.004   0.566  -0.593  0.00  0.00    -0.047 A 
ATOM      5  C3  UNL d   1      -1.413   0.441  -0.614  0.00  0.00    -0.047 A 
ATOM      6  C4  UNL d   1      -1.816   0.119   0.665  0.00  0.00    -0.004 A 
ENDROOT
TORSDOF 0
ENDMDL
