MODEL 1
REMARK minimizedAffinity -2.6812675
REMARK minimizedRMSD -1
REMARK  0 active torsions:
REMARK  status: ('A' for Active; 'I' for Inactive)
ROOT
ATOM      1  C   UNL d   1       0.476   0.066  -0.980  0.00  0.00     0.172 C 
ATOM      2  N   UNL d   1      -0.809  -0.461  -1.375  0.00  0.00    -0.070 N 
ATOM      3  C1  UNL d   1      -2.025   0.093  -1.077  0.00  0.00    -0.004 A 
ATOM      4  C2  UNL d   1      -3.001  -0.706  -1.633  0.00  0.00    -0.047 A 
ATOM      5  C3  UNL d   1      -2.348  -1.777  -2.287  0.00  0.00    -0.047 A 
ATOM      6  C4  UNL d   1      -0.992  -1.601  -2.112  0.00  0.00    -0.004 A 
ENDROOT
TORSDOF 0
ENDMDL
