MODEL 1
REMARK minimizedAffinity -3.95808482
REMARK minimizedRMSD -1
REMARK  0 active torsions:
REMARK  status: ('A' for Active; 'I' for Inactive)
ROOT
ATOM      1  C   UNL d   1       0.397   2.248   2.001  0.00  0.00     0.020 A 
ATOM      2  C1  UNL d   1      -0.759   1.475   2.100  0.00  0.00     0.020 A 
ATOM      3  C2  UNL d   1      -0.921   0.353   1.284  0.00  0.00     0.034 A 
ATOM      4  C3  UNL d   1       0.074   0.002   0.365  0.00  0.00     0.017 A 
ATOM      5  C4  UNL d   1       1.234   0.778   0.266  0.00  0.00     0.017 A 
ATOM      6  C5  UNL d   1       1.391   1.900   1.086  0.00  0.00     0.034 A 
ATOM      7 Cl   UNL d   1       2.506   0.408  -0.844  0.00  0.00    -0.070 Cl
ATOM      8 Cl1  UNL d   1      -0.192  -1.398  -0.612  0.00  0.00    -0.070 Cl
ENDROOT
TORSDOF 0
ENDMDL
