MODEL 1
REMARK minimizedAffinity -2.66554904
REMARK minimizedRMSD -1
REMARK  0 active torsions:
REMARK  status: ('A' for Active; 'I' for Inactive)
ROOT
ATOM      1  C   UNL d   1       0.871   2.575   1.501  0.00  0.00     0.020 A 
ATOM      2  C1  UNL d   1       1.204   2.501   0.149  0.00  0.00     0.020 A 
ATOM      3  C2  UNL d   1       0.786   1.410  -0.615  0.00  0.00     0.034 A 
ATOM      4  C3  UNL d   1       0.031   0.388  -0.028  0.00  0.00     0.017 A 
ATOM      5  C4  UNL d   1      -0.304   0.463   1.329  0.00  0.00     0.017 A 
ATOM      6  C5  UNL d   1       0.118   1.558   2.089  0.00  0.00     0.034 A 
ATOM      7 Cl   UNL d   1      -1.233  -0.759   2.124  0.00  0.00    -0.070 Cl
ATOM      8 Cl1  UNL d   1      -0.454  -0.932  -1.032  0.00  0.00    -0.070 Cl
ENDROOT
TORSDOF 0
ENDMDL
