MODEL 1
REMARK minimizedAffinity -0.266038179
REMARK minimizedRMSD -1
REMARK  0 active torsions:
REMARK  status: ('A' for Active; 'I' for Inactive)
ROOT
ATOM      1  C   UNL d   1      -1.338   0.078   2.056  0.00  0.00     0.020 A 
ATOM      2  C1  UNL d   1      -1.025  -0.898   1.110  0.00  0.00     0.020 A 
ATOM      3  C2  UNL d   1      -0.070  -0.635   0.125  0.00  0.00     0.034 A 
ATOM      4  C3  UNL d   1       0.574   0.607   0.083  0.00  0.00     0.017 A 
ATOM      5  C4  UNL d   1       0.259   1.585   1.033  0.00  0.00     0.017 A 
ATOM      6  C5  UNL d   1      -0.697   1.317   2.017  0.00  0.00     0.034 A 
ATOM      7 Cl   UNL d   1       1.013   3.141   1.046  0.00  0.00    -0.070 Cl
ATOM      8 Cl1  UNL d   1       1.744   0.863  -1.162  0.00  0.00    -0.070 Cl
ENDROOT
TORSDOF 0
ENDMDL
