MODEL 1
REMARK minimizedAffinity -3.50411868
REMARK minimizedRMSD -1
REMARK  0 active torsions:
REMARK  status: ('A' for Active; 'I' for Inactive)
ROOT
ATOM      1  C   UNL d   1       0.734  -1.065   0.217  0.00  0.00     0.020 A 
ATOM      2  C1  UNL d   1       1.501  -0.203  -0.566  0.00  0.00     0.020 A 
ATOM      3  C2  UNL d   1       1.366   1.179  -0.420  0.00  0.00     0.034 A 
ATOM      4  C3  UNL d   1       0.462   1.704   0.511  0.00  0.00     0.017 A 
ATOM      5  C4  UNL d   1      -0.307   0.838   1.296  0.00  0.00     0.017 A 
ATOM      6  C5  UNL d   1      -0.168  -0.545   1.146  0.00  0.00     0.034 A 
ATOM      7 Cl   UNL d   1      -1.444   1.410   2.466  0.00  0.00    -0.070 Cl
ATOM      8 Cl1  UNL d   1       0.347   3.423   0.638  0.00  0.00    -0.070 Cl
ENDROOT
TORSDOF 0
ENDMDL
