MODEL 1
REMARK minimizedAffinity -4.1945076
REMARK minimizedRMSD -1
REMARK  0 active torsions:
REMARK  status: ('A' for Active; 'I' for Inactive)
ROOT
ATOM      1  C   UNL d   1       1.158   2.055  -0.099  0.00  0.00     0.020 A 
ATOM      2  C1  UNL d   1       0.866   2.319   1.239  0.00  0.00     0.020 A 
ATOM      3  C2  UNL d   1       0.032   1.458   1.955  0.00  0.00     0.034 A 
ATOM      4  C3  UNL d   1      -0.513   0.328   1.334  0.00  0.00     0.017 A 
ATOM      5  C4  UNL d   1      -0.220   0.064  -0.009  0.00  0.00     0.017 A 
ATOM      6  C5  UNL d   1       0.616   0.930  -0.721  0.00  0.00     0.034 A 
ATOM      7 Cl   UNL d   1      -0.855  -1.310  -0.843  0.00  0.00    -0.070 Cl
ATOM      8 Cl1  UNL d   1      -1.536  -0.693   2.280  0.00  0.00    -0.070 Cl
ENDROOT
TORSDOF 0
ENDMDL
