MODEL 1
REMARK minimizedAffinity -3.72663093
REMARK minimizedRMSD -1
REMARK  0 active torsions:
REMARK  status: ('A' for Active; 'I' for Inactive)
ROOT
ATOM      1  C   UNL d   1      -0.873   1.883   0.633  0.00  0.00     0.020 A 
ATOM      2  C1  UNL d   1       0.339   1.650   1.281  0.00  0.00     0.020 A 
ATOM      3  C2  UNL d   1       1.157   0.593   0.873  0.00  0.00     0.034 A 
ATOM      4  C3  UNL d   1       0.763  -0.233  -0.186  0.00  0.00     0.017 A 
ATOM      5  C4  UNL d   1      -0.454   0.003  -0.836  0.00  0.00     0.017 A 
ATOM      6  C5  UNL d   1      -1.269   1.062  -0.423  0.00  0.00     0.034 A 
ATOM      7 Cl   UNL d   1      -1.007  -0.973  -2.151  0.00  0.00    -0.070 Cl
ATOM      8 Cl1  UNL d   1       1.824  -1.520  -0.639  0.00  0.00    -0.070 Cl
ENDROOT
TORSDOF 0
ENDMDL
