MODEL 1
REMARK minimizedAffinity -3.01252723
REMARK minimizedRMSD -1
REMARK  0 active torsions:
REMARK  status: ('A' for Active; 'I' for Inactive)
ROOT
ATOM      1  C   UNL d   1      -0.998  -0.860   0.728  0.00  0.00     0.020 A 
ATOM      2  C1  UNL d   1      -0.326  -1.627  -0.223  0.00  0.00     0.020 A 
ATOM      3  C2  UNL d   1       0.905  -1.198  -0.723  0.00  0.00     0.034 A 
ATOM      4  C3  UNL d   1       1.468   0.002  -0.273  0.00  0.00     0.017 A 
ATOM      5  C4  UNL d   1       0.793   0.771   0.682  0.00  0.00     0.017 A 
ATOM      6  C5  UNL d   1      -0.439   0.336   1.179  0.00  0.00     0.034 A 
ATOM      7 Cl   UNL d   1       1.425   2.262   1.286  0.00  0.00    -0.070 Cl
ATOM      8 Cl1  UNL d   1       2.993   0.471  -0.935  0.00  0.00    -0.070 Cl
ENDROOT
TORSDOF 0
ENDMDL
