MODEL 1
REMARK minimizedAffinity -0.291206598
REMARK minimizedRMSD -1
REMARK  0 active torsions:
REMARK  status: ('A' for Active; 'I' for Inactive)
ROOT
ATOM      1  C   UNL d   1      -1.309   1.049   2.083  0.00  0.00     0.020 A 
ATOM      2  C1  UNL d   1      -0.045   1.571   2.354  0.00  0.00     0.020 A 
ATOM      3  C2  UNL d   1       1.049   1.190   1.574  0.00  0.00     0.034 A 
ATOM      4  C3  UNL d   1       0.881   0.285   0.520  0.00  0.00     0.017 A 
ATOM      5  C4  UNL d   1      -0.388  -0.239   0.249  0.00  0.00     0.017 A 
ATOM      6  C5  UNL d   1      -1.480   0.147   1.033  0.00  0.00     0.034 A 
ATOM      7 Cl   UNL d   1      -0.674  -1.360  -1.034  0.00  0.00    -0.070 Cl
ATOM      8 Cl1  UNL d   1       2.278  -0.142  -0.403  0.00  0.00    -0.070 Cl
ENDROOT
TORSDOF 0
ENDMDL
