MODEL 1
REMARK minimizedAffinity -2.2286644
REMARK minimizedRMSD -1
REMARK  0 active torsions:
REMARK  status: ('A' for Active; 'I' for Inactive)
ROOT
ATOM      1  C   UNL d   1       1.649   1.061  -0.815  0.00  0.00     0.020 A 
ATOM      2  C1  UNL d   1       1.334   1.685   0.391  0.00  0.00     0.020 A 
ATOM      3  C2  UNL d   1       0.253   1.230   1.150  0.00  0.00     0.034 A 
ATOM      4  C3  UNL d   1      -0.516   0.150   0.703  0.00  0.00     0.017 A 
ATOM      5  C4  UNL d   1      -0.199  -0.475  -0.508  0.00  0.00     0.017 A 
ATOM      6  C5  UNL d   1       0.885  -0.016  -1.264  0.00  0.00     0.034 A 
ATOM      7 Cl   UNL d   1      -1.101  -1.814  -1.125  0.00  0.00    -0.070 Cl
ATOM      8 Cl1  UNL d   1      -1.838  -0.359   1.692  0.00  0.00    -0.070 Cl
ENDROOT
TORSDOF 0
ENDMDL
