MODEL 1
REMARK minimizedAffinity -0.853275895
REMARK minimizedRMSD -1
REMARK  0 active torsions:
REMARK  status: ('A' for Active; 'I' for Inactive)
ROOT
ATOM      1  C   UNL d   1       1.008   2.344   1.293  0.00  0.00     0.020 A 
ATOM      2  C1  UNL d   1       1.501   1.922   0.059  0.00  0.00     0.020 A 
ATOM      3  C2  UNL d   1       0.998   0.762  -0.533  0.00  0.00     0.034 A 
ATOM      4  C3  UNL d   1       0.000   0.019   0.108  0.00  0.00     0.017 A 
ATOM      5  C4  UNL d   1      -0.494   0.444   1.347  0.00  0.00     0.017 A 
ATOM      6  C5  UNL d   1       0.013   1.606   1.936  0.00  0.00     0.034 A 
ATOM      7 Cl   UNL d   1      -1.725  -0.420   2.198  0.00  0.00    -0.070 Cl
ATOM      8 Cl1  UNL d   1      -0.575  -1.405  -0.683  0.00  0.00    -0.070 Cl
ENDROOT
TORSDOF 0
ENDMDL
