MODEL 1
REMARK minimizedAffinity -4.337852
REMARK minimizedRMSD -1
REMARK  0 active torsions:
REMARK  status: ('A' for Active; 'I' for Inactive)
ROOT
ATOM      1  C   UNL d   1       1.037   2.438   0.095  0.00  0.00     0.020 A 
ATOM      2  C1  UNL d   1       0.893   2.379   1.480  0.00  0.00     0.020 A 
ATOM      3  C2  UNL d   1       0.225   1.302   2.067  0.00  0.00     0.034 A 
ATOM      4  C3  UNL d   1      -0.301   0.280   1.269  0.00  0.00     0.017 A 
ATOM      5  C4  UNL d   1      -0.156   0.340  -0.122  0.00  0.00     0.017 A 
ATOM      6  C5  UNL d   1       0.514   1.420  -0.704  0.00  0.00     0.034 A 
ATOM      7 Cl   UNL d   1      -0.778  -0.883  -1.172  0.00  0.00    -0.070 Cl
ATOM      8 Cl1  UNL d   1      -1.115  -1.021   2.063  0.00  0.00    -0.070 Cl
ENDROOT
TORSDOF 0
ENDMDL
