MODEL 1
REMARK minimizedAffinity -2.261765
REMARK minimizedRMSD -1
REMARK  0 active torsions:
REMARK  status: ('A' for Active; 'I' for Inactive)
ROOT
ATOM      1  C   UNL d   1      -1.339   1.149   1.419  0.00  0.00     0.020 A 
ATOM      2  C1  UNL d   1      -0.003   1.547   1.472  0.00  0.00     0.020 A 
ATOM      3  C2  UNL d   1       0.946   0.917   0.665  0.00  0.00     0.034 A 
ATOM      4  C3  UNL d   1       0.561  -0.114  -0.200  0.00  0.00     0.017 A 
ATOM      5  C4  UNL d   1      -0.779  -0.513  -0.253  0.00  0.00     0.017 A 
ATOM      6  C5  UNL d   1      -1.725   0.121   0.558  0.00  0.00     0.034 A 
ATOM      7 Cl   UNL d   1      -1.329  -1.778  -1.294  0.00  0.00    -0.070 Cl
ATOM      8 Cl1  UNL d   1       1.788  -0.849  -1.170  0.00  0.00    -0.070 Cl
ENDROOT
TORSDOF 0
ENDMDL
