MODEL 1
REMARK minimizedAffinity -3.98591328
REMARK minimizedRMSD -1
REMARK  0 active torsions:
REMARK  status: ('A' for Active; 'I' for Inactive)
ROOT
ATOM      1  C   UNL d   1      -0.452  -0.976   0.167  0.00  0.00     0.020 A 
ATOM      2  C1  UNL d   1      -1.123  -0.177   1.093  0.00  0.00     0.020 A 
ATOM      3  C2  UNL d   1      -0.600   1.069   1.448  0.00  0.00     0.034 A 
ATOM      4  C3  UNL d   1       0.596   1.518   0.878  0.00  0.00     0.017 A 
ATOM      5  C4  UNL d   1       1.269   0.716  -0.050  0.00  0.00     0.017 A 
ATOM      6  C5  UNL d   1       0.741  -0.530  -0.403  0.00  0.00     0.034 A 
ATOM      7 Cl   UNL d   1       2.750   1.203  -0.796  0.00  0.00    -0.070 Cl
ATOM      8 Cl1  UNL d   1       1.185   3.069   1.364  0.00  0.00    -0.070 Cl
ENDROOT
TORSDOF 0
ENDMDL
