MODEL 1
REMARK minimizedAffinity -4.71061563
REMARK minimizedRMSD -1
REMARK  0 active torsions:
REMARK  status: ('A' for Active; 'I' for Inactive)
ROOT
ATOM      1  C   UNL d   1      -0.701  -0.748  -0.325  0.00  0.00     0.020 A 
ATOM      2  C1  UNL d   1      -1.304   0.051   0.645  0.00  0.00     0.020 A 
ATOM      3  C2  UNL d   1      -0.627   1.161   1.155  0.00  0.00     0.034 A 
ATOM      4  C3  UNL d   1       0.658   1.474   0.696  0.00  0.00     0.017 A 
ATOM      5  C4  UNL d   1       1.262   0.671  -0.278  0.00  0.00     0.017 A 
ATOM      6  C5  UNL d   1       0.579  -0.439  -0.785  0.00  0.00     0.034 A 
ATOM      7 Cl   UNL d   1       2.844   0.993  -0.894  0.00  0.00    -0.070 Cl
ATOM      8 Cl1  UNL d   1       1.436   2.861   1.371  0.00  0.00    -0.070 Cl
ENDROOT
TORSDOF 0
ENDMDL
