MODEL 1
REMARK minimizedAffinity -2.96843982
REMARK minimizedRMSD -1
REMARK  0 active torsions:
REMARK  status: ('A' for Active; 'I' for Inactive)
ROOT
ATOM      1  C   UNL d   1      -1.995  -1.666  -2.259  0.00  0.00     0.020 A 
ATOM      2  C1  UNL d   1      -0.982  -1.246  -3.119  0.00  0.00     0.020 A 
ATOM      3  C2  UNL d   1       0.124  -0.560  -2.612  0.00  0.00     0.034 A 
ATOM      4  C3  UNL d   1       0.218  -0.292  -1.242  0.00  0.00     0.017 A 
ATOM      5  C4  UNL d   1      -0.799  -0.714  -0.379  0.00  0.00     0.017 A 
ATOM      6  C5  UNL d   1      -1.904  -1.401  -0.892  0.00  0.00     0.034 A 
ATOM      7 Cl   UNL d   1      -0.753  -0.420   1.323  0.00  0.00    -0.070 Cl
ATOM      8 Cl1  UNL d   1       1.614   0.561  -0.684  0.00  0.00    -0.070 Cl
ENDROOT
TORSDOF 0
ENDMDL
