MODEL 1
REMARK minimizedAffinity -3.74606204
REMARK minimizedRMSD -1
REMARK  0 active torsions:
REMARK  status: ('A' for Active; 'I' for Inactive)
ROOT
ATOM      1  C   UNL d   1       1.096   2.536   1.116  0.00  0.00     0.020 A 
ATOM      2  C1  UNL d   1      -0.029   1.991   1.734  0.00  0.00     0.020 A 
ATOM      3  C2  UNL d   1      -0.418   0.681   1.446  0.00  0.00     0.034 A 
ATOM      4  C3  UNL d   1       0.318  -0.088   0.537  0.00  0.00     0.017 A 
ATOM      5  C4  UNL d   1       1.447   0.460  -0.083  0.00  0.00     0.017 A 
ATOM      6  C5  UNL d   1       1.832   1.772   0.209  0.00  0.00     0.034 A 
ATOM      7 Cl   UNL d   1       2.406  -0.428  -1.214  0.00  0.00    -0.070 Cl
ATOM      8 Cl1  UNL d   1      -0.220  -1.701   0.229  0.00  0.00    -0.070 Cl
ENDROOT
TORSDOF 0
ENDMDL
