MODEL 1
REMARK minimizedAffinity -3.30161643
REMARK minimizedRMSD -1
REMARK  0 active torsions:
REMARK  status: ('A' for Active; 'I' for Inactive)
ROOT
ATOM      1  N1  IND d   1       0.068  -1.302  -0.293  0.00  0.00    -0.196 N 
ATOM      2  C2  IND d   1       0.368  -0.203   0.463  0.00  0.00     0.054 A 
ATOM      3  C3  IND d   1      -0.317   0.874   0.019  0.00  0.00    -0.031 A 
ATOM      4  C4  IND d   1      -2.061   1.040  -1.867  0.00  0.00     0.051 A 
ATOM      5  C5  IND d   1      -2.641   0.309  -2.865  0.00  0.00    -0.031 A 
ATOM      6  C6  IND d   1      -2.343  -1.024  -3.060  0.00  0.00     0.015 A 
ATOM      7  C7  IND d   1      -1.459  -1.682  -2.252  0.00  0.00    -0.016 A 
ATOM      8  C8  IND d   1      -0.863  -0.941  -1.241  0.00  0.00    -0.047 A 
ATOM      9  C9  IND d   1      -1.129   0.424  -1.066  0.00  0.00    -0.096 A 
ATOM     10  HN1 IND d   1       0.405  -2.087  -0.193  0.00  0.00     0.298 HD
ENDROOT
TORSDOF 0
ENDMDL
