MODEL 1
REMARK minimizedAffinity -3.12464499
REMARK minimizedRMSD -1
REMARK  0 active torsions:
REMARK  status: ('A' for Active; 'I' for Inactive)
ROOT
ATOM      1  N1  IND d   1       0.391  -2.533   1.938  0.00  0.00    -0.196 N 
ATOM      2  C2  IND d   1       1.748  -2.469   2.091  0.00  0.00     0.054 A 
ATOM      3  C3  IND d   1       2.245  -1.395   1.438  0.00  0.00    -0.031 A 
ATOM      4  C4  IND d   1       1.004   0.448   0.139  0.00  0.00     0.051 A 
ATOM      5  C5  IND d   1      -0.239   0.802  -0.306  0.00  0.00    -0.031 A 
ATOM      6  C6  IND d   1      -1.359   0.048  -0.018  0.00  0.00     0.015 A 
ATOM      7  C7  IND d   1      -1.278  -1.086   0.740  0.00  0.00    -0.016 A 
ATOM      8  C8  IND d   1      -0.016  -1.452   1.187  0.00  0.00    -0.047 A 
ATOM      9  C9  IND d   1       1.129  -0.714   0.862  0.00  0.00    -0.096 A 
ATOM     10  HN1 IND d   1      -0.122  -3.145   2.257  0.00  0.00     0.298 HD
ENDROOT
TORSDOF 0
ENDMDL
