MODEL 1
REMARK minimizedAffinity -4.38389397
REMARK minimizedRMSD -1
REMARK  0 active torsions:
REMARK  status: ('A' for Active; 'I' for Inactive)
ROOT
ATOM      1  N1  IND d   1      -0.963  -1.693   1.487  0.00  0.00    -0.196 N 
ATOM      2  C2  IND d   1      -0.053  -2.701   1.644  0.00  0.00     0.054 A 
ATOM      3  C3  IND d   1       1.176  -2.289   1.259  0.00  0.00    -0.031 A 
ATOM      4  C4  IND d   1       1.943   0.027   0.437  0.00  0.00     0.051 A 
ATOM      5  C5  IND d   1       1.465   1.260   0.094  0.00  0.00    -0.031 A 
ATOM      6  C6  IND d   1       0.127   1.580   0.203  0.00  0.00     0.015 A 
ATOM      7  C7  IND d   1      -0.786   0.678   0.671  0.00  0.00    -0.016 A 
ATOM      8  C8  IND d   1      -0.305  -0.578   1.014  0.00  0.00    -0.047 A 
ATOM      9  C9  IND d   1       1.045  -0.922   0.865  0.00  0.00    -0.096 A 
ATOM     10  HN1 IND d   1      -1.804  -1.746   1.656  0.00  0.00     0.298 HD
ENDROOT
TORSDOF 0
ENDMDL
