MODEL 1
REMARK minimizedAffinity 4.17886972
REMARK minimizedRMSD -1
REMARK  0 active torsions:
REMARK  status: ('A' for Active; 'I' for Inactive)
ROOT
ATOM      1  N1  IND d   1       2.536  -0.600   0.715  0.00  0.00    -0.196 N 
ATOM      2  C2  IND d   1       3.269   0.313   1.420  0.00  0.00     0.054 A 
ATOM      3  C3  IND d   1       2.528   1.414   1.677  0.00  0.00    -0.031 A 
ATOM      4  C4  IND d   1       0.058   1.888   1.126  0.00  0.00     0.051 A 
ATOM      5  C5  IND d   1      -1.016   1.368   0.461  0.00  0.00    -0.031 A 
ATOM      6  C6  IND d   1      -0.961   0.139  -0.165  0.00  0.00     0.015 A 
ATOM      7  C7  IND d   1       0.172  -0.624  -0.138  0.00  0.00    -0.016 A 
ATOM      8  C8  IND d   1       1.267  -0.096   0.531  0.00  0.00    -0.047 A 
ATOM      9  C9  IND d   1       1.230   1.169   1.132  0.00  0.00    -0.096 A 
ATOM     10  HN1 IND d   1       2.819  -1.362   0.434  0.00  0.00     0.298 HD
ENDROOT
TORSDOF 0
ENDMDL
