MODEL 1
REMARK minimizedAffinity -0.582277298
REMARK minimizedRMSD -1
REMARK  0 active torsions:
REMARK  status: ('A' for Active; 'I' for Inactive)
ROOT
ATOM      1  N1  IND d   1       2.820   0.722   0.935  0.00  0.00    -0.196 N 
ATOM      2  C2  IND d   1       3.304  -0.545   0.759  0.00  0.00     0.054 A 
ATOM      3  C3  IND d   1       2.356  -1.338   0.212  0.00  0.00    -0.031 A 
ATOM      4  C4  IND d   1      -0.024  -0.743  -0.568  0.00  0.00     0.051 A 
ATOM      5  C5  IND d   1      -0.929   0.280  -0.581  0.00  0.00    -0.031 A 
ATOM      6  C6  IND d   1      -0.624   1.530  -0.081  0.00  0.00     0.015 A 
ATOM      7  C7  IND d   1       0.608   1.806   0.442  0.00  0.00    -0.016 A 
ATOM      8  C8  IND d   1       1.527   0.767   0.463  0.00  0.00    -0.047 A 
ATOM      9  C9  IND d   1       1.209  -0.515  -0.004  0.00  0.00    -0.096 A 
ATOM     10  HN1 IND d   1       3.251   1.380   1.283  0.00  0.00     0.298 HD
ENDROOT
TORSDOF 0
ENDMDL
