MODEL 1
REMARK minimizedAffinity -5.21775818
REMARK minimizedRMSD -1
REMARK  0 active torsions:
REMARK  status: ('A' for Active; 'I' for Inactive)
ROOT
ATOM      1  N1  IND d   1      -0.634  -0.704   1.237  0.00  0.00    -0.196 N 
ATOM      2  C2  IND d   1      -1.125   0.350   0.518  0.00  0.00     0.054 A 
ATOM      3  C3  IND d   1      -0.111   1.110   0.046  0.00  0.00    -0.031 A 
ATOM      4  C4  IND d   1       2.430   0.755   0.246  0.00  0.00     0.051 A 
ATOM      5  C5  IND d   1       3.362  -0.050   0.840  0.00  0.00    -0.031 A 
ATOM      6  C6  IND d   1       3.002  -1.137   1.610  0.00  0.00     0.015 A 
ATOM      7  C7  IND d   1       1.691  -1.468   1.806  0.00  0.00    -0.016 A 
ATOM      8  C8  IND d   1       0.742  -0.649   1.210  0.00  0.00    -0.047 A 
ATOM      9  C9  IND d   1       1.101   0.480   0.463  0.00  0.00    -0.096 A 
ATOM     10  HN1 IND d   1      -1.106  -1.300   1.638  0.00  0.00     0.298 HD
ENDROOT
TORSDOF 0
ENDMDL
