MODEL 1
REMARK minimizedAffinity -0.179970443
REMARK minimizedRMSD -1
REMARK  0 active torsions:
REMARK  status: ('A' for Active; 'I' for Inactive)
ROOT
ATOM      1  N1  IND d   1      -0.089   1.563   0.292  0.00  0.00    -0.196 N 
ATOM      2  C2  IND d   1      -1.032   0.831  -0.375  0.00  0.00     0.054 A 
ATOM      3  C3  IND d   1      -0.663  -0.468  -0.433  0.00  0.00    -0.031 A 
ATOM      4  C4  IND d   1       1.394  -1.632   0.586  0.00  0.00     0.051 A 
ATOM      5  C5  IND d   1       2.558  -1.373   1.255  0.00  0.00    -0.031 A 
ATOM      6  C6  IND d   1       2.904  -0.096   1.647  0.00  0.00     0.015 A 
ATOM      7  C7  IND d   1       2.090   0.972   1.394  0.00  0.00    -0.016 A 
ATOM      8  C8  IND d   1       0.912   0.713   0.709  0.00  0.00    -0.047 A 
ATOM      9  C9  IND d   1       0.575  -0.574   0.271  0.00  0.00    -0.096 A 
ATOM     10  HN1 IND d   1      -0.117   2.412   0.429  0.00  0.00     0.298 HD
ENDROOT
TORSDOF 0
ENDMDL
