MODEL 1
REMARK minimizedAffinity -3.50537968
REMARK minimizedRMSD -1
REMARK  0 active torsions:
REMARK  status: ('A' for Active; 'I' for Inactive)
ROOT
ATOM      1  N1  IND d   1       2.647   1.009   1.369  0.00  0.00    -0.196 N 
ATOM      2  C2  IND d   1       3.498   0.002   1.007  0.00  0.00     0.054 A 
ATOM      3  C3  IND d   1       2.842  -0.928   0.278  0.00  0.00    -0.031 A 
ATOM      4  C4  IND d   1       0.396  -0.950  -0.526  0.00  0.00     0.051 A 
ATOM      5  C5  IND d   1      -0.780  -0.263  -0.416  0.00  0.00    -0.031 A 
ATOM      6  C6  IND d   1      -0.875   0.908   0.307  0.00  0.00     0.015 A 
ATOM      7  C7  IND d   1       0.210   1.445   0.940  0.00  0.00    -0.016 A 
ATOM      8  C8  IND d   1       1.404   0.746   0.837  0.00  0.00    -0.047 A 
ATOM      9  C9  IND d   1       1.497  -0.465   0.140  0.00  0.00    -0.096 A 
ATOM     10  HN1 IND d   1       2.854   1.693   1.849  0.00  0.00     0.298 HD
ENDROOT
TORSDOF 0
ENDMDL
