MODEL 1
REMARK minimizedAffinity 2.7503643
REMARK minimizedRMSD -1
REMARK  0 active torsions:
REMARK  status: ('A' for Active; 'I' for Inactive)
ROOT
ATOM      1  C   UNL d   1       1.723   3.155   2.769  0.00  0.00     0.172 C 
ATOM      2  N   UNL d   1       1.646   2.549   1.461  0.00  0.00    -0.070 N 
ATOM      3  C1  UNL d   1       2.573   1.700   0.918  0.00  0.00    -0.004 A 
ATOM      4  C2  UNL d   1       2.135   1.343  -0.339  0.00  0.00    -0.047 A 
ATOM      5  C3  UNL d   1       0.901   2.001  -0.560  0.00  0.00    -0.047 A 
ATOM      6  C4  UNL d   1       0.622   2.740   0.570  0.00  0.00    -0.004 A 
ENDROOT
TORSDOF 0
ENDMDL
