MODEL 1
REMARK minimizedAffinity 3.97502899
REMARK minimizedRMSD -1
REMARK  0 active torsions:
REMARK  status: ('A' for Active; 'I' for Inactive)
ROOT
ATOM      1  C   UNL d   1      -0.434  -1.621  -1.983  0.00  0.00     0.172 C 
ATOM      2  N   UNL d   1      -1.420  -1.679  -3.037  0.00  0.00    -0.070 N 
ATOM      3  C1  UNL d   1      -1.851  -2.817  -3.664  0.00  0.00    -0.004 A 
ATOM      4  C2  UNL d   1      -2.790  -2.451  -4.604  0.00  0.00    -0.047 A 
ATOM      5  C3  UNL d   1      -2.927  -1.044  -4.540  0.00  0.00    -0.047 A 
ATOM      6  C4  UNL d   1      -2.067  -0.592  -3.561  0.00  0.00    -0.004 A 
ENDROOT
TORSDOF 0
ENDMDL
