MODEL 1
REMARK minimizedAffinity 10.4496965
REMARK minimizedRMSD -1
REMARK  0 active torsions:
REMARK  status: ('A' for Active; 'I' for Inactive)
ROOT
ATOM      1  C   UNL d   1      -5.997  -1.351  -1.879  0.00  0.00     0.172 C 
ATOM      2  N   UNL d   1      -5.133  -0.470  -1.129  0.00  0.00    -0.070 N 
ATOM      3  C1  UNL d   1      -3.769  -0.416  -1.227  0.00  0.00    -0.004 A 
ATOM      4  C2  UNL d   1      -3.320   0.549  -0.351  0.00  0.00    -0.047 A 
ATOM      5  C3  UNL d   1      -4.455   1.093   0.296  0.00  0.00    -0.047 A 
ATOM      6  C4  UNL d   1      -5.564   0.444  -0.204  0.00  0.00    -0.004 A 
ENDROOT
TORSDOF 0
ENDMDL
