MODEL 1
REMARK minimizedAffinity 1.49794245
REMARK minimizedRMSD -1
REMARK  0 active torsions:
REMARK  status: ('A' for Active; 'I' for Inactive)
ROOT
ATOM      1  C   UNL d   1       5.789   2.855  -1.941  0.00  0.00     0.172 C 
ATOM      2  N   UNL d   1       4.738   2.312  -1.114  0.00  0.00    -0.070 N 
ATOM      3  C1  UNL d   1       3.607   1.686  -1.567  0.00  0.00    -0.004 A 
ATOM      4  C2  UNL d   1       2.861   1.316  -0.469  0.00  0.00    -0.047 A 
ATOM      5  C3  UNL d   1       3.566   1.735   0.684  0.00  0.00    -0.047 A 
ATOM      6  C4  UNL d   1       4.725   2.349   0.256  0.00  0.00    -0.004 A 
ENDROOT
TORSDOF 0
ENDMDL
