MODEL 1
REMARK minimizedAffinity 4.6525383
REMARK minimizedRMSD -1
REMARK  0 active torsions:
REMARK  status: ('A' for Active; 'I' for Inactive)
ROOT
ATOM      1  C   UNL d   1       3.680  -1.566   2.531  0.00  0.00     0.172 C 
ATOM      2  N   UNL d   1       3.297  -0.743   1.408  0.00  0.00    -0.070 N 
ATOM      3  C1  UNL d   1       3.572   0.590   1.263  0.00  0.00    -0.004 A 
ATOM      4  C2  UNL d   1       3.039   1.004   0.062  0.00  0.00    -0.047 A 
ATOM      5  C3  UNL d   1       2.421  -0.120  -0.536  0.00  0.00    -0.047 A 
ATOM      6  C4  UNL d   1       2.595  -1.188   0.318  0.00  0.00    -0.004 A 
ENDROOT
TORSDOF 0
ENDMDL
