MODEL 1
REMARK minimizedAffinity 5.11798763
REMARK minimizedRMSD -1
REMARK  0 active torsions:
REMARK  status: ('A' for Active; 'I' for Inactive)
ROOT
ATOM      1  C   UNL d   1       3.279  -0.781   2.739  0.00  0.00     0.172 C 
ATOM      2  N   UNL d   1       3.176  -0.061   1.491  0.00  0.00    -0.070 N 
ATOM      3  C1  UNL d   1       3.690   1.184   1.243  0.00  0.00    -0.004 A 
ATOM      4  C2  UNL d   1       3.380   1.517  -0.058  0.00  0.00    -0.047 A 
ATOM      5  C3  UNL d   1       2.653   0.435  -0.610  0.00  0.00    -0.047 A 
ATOM      6  C4  UNL d   1       2.542  -0.528   0.370  0.00  0.00    -0.004 A 
ENDROOT
TORSDOF 0
ENDMDL
