MODEL 1
REMARK minimizedAffinity 3.78125596
REMARK minimizedRMSD -1
REMARK  0 active torsions:
REMARK  status: ('A' for Active; 'I' for Inactive)
ROOT
ATOM      1  C   UNL d   1       5.756   2.835  -1.446  0.00  0.00     0.172 C 
ATOM      2  N   UNL d   1       4.668   2.089  -0.859  0.00  0.00    -0.070 N 
ATOM      3  C1  UNL d   1       4.419   1.961   0.481  0.00  0.00    -0.004 A 
ATOM      4  C2  UNL d   1       3.296   1.175   0.629  0.00  0.00    -0.047 A 
ATOM      5  C3  UNL d   1       2.855   0.819  -0.668  0.00  0.00    -0.047 A 
ATOM      6  C4  UNL d   1       3.722   1.398  -1.570  0.00  0.00    -0.004 A 
ENDROOT
TORSDOF 0
ENDMDL
