MODEL 1
REMARK minimizedAffinity -0.467058092
REMARK minimizedRMSD -1
REMARK  0 active torsions:
REMARK  status: ('A' for Active; 'I' for Inactive)
ROOT
ATOM      1  C   UNL d   1       3.235   1.867   0.085  0.00  0.00     0.172 C 
ATOM      2  N   UNL d   1       4.207   2.231  -0.918  0.00  0.00    -0.070 N 
ATOM      3  C1  UNL d   1       4.164   1.873  -2.239  0.00  0.00    -0.004 A 
ATOM      4  C2  UNL d   1       5.267   2.416  -2.861  0.00  0.00    -0.047 A 
ATOM      5  C3  UNL d   1       6.000   3.125  -1.879  0.00  0.00    -0.047 A 
ATOM      6  C4  UNL d   1       5.321   2.994  -0.686  0.00  0.00    -0.004 A 
ENDROOT
TORSDOF 0
ENDMDL
