MODEL 1
REMARK minimizedAffinity -2.25737071
REMARK minimizedRMSD -1
REMARK  0 active torsions:
REMARK  status: ('A' for Active; 'I' for Inactive)
ROOT
ATOM      1  C   UNL d   1       3.904  -4.118  -0.101  0.00  0.00     0.078 C 
ATOM      2  C1  UNL d   1       3.596  -3.815  -1.537  0.00  0.00    -0.077 A 
ATOM      3  C2  UNL d   1       4.440  -4.257  -2.564  0.00  0.00    -0.001 A 
ATOM      4  C3  UNL d   1       4.146  -3.959  -3.896  0.00  0.00     0.003 A 
ATOM      5  C4  UNL d   1       3.010  -3.217  -4.213  0.00  0.00    -0.005 A 
ATOM      6  C5  UNL d   1       2.167  -2.771  -3.198  0.00  0.00     0.003 A 
ATOM      7  C6  UNL d   1       2.458  -3.068  -1.866  0.00  0.00    -0.001 A 
ENDROOT
TORSDOF 0
ENDMDL
