MODEL 1
REMARK minimizedAffinity 5.84311676
REMARK minimizedRMSD -1
REMARK  0 active torsions:
REMARK  status: ('A' for Active; 'I' for Inactive)
ROOT
ATOM      1  C   UNL d   1       3.036  -5.339  -1.200  0.00  0.00     0.078 C 
ATOM      2  C1  UNL d   1       3.137  -4.692  -2.549  0.00  0.00    -0.077 A 
ATOM      3  C2  UNL d   1       4.276  -4.858  -3.345  0.00  0.00    -0.001 A 
ATOM      4  C3  UNL d   1       4.360  -4.241  -4.595  0.00  0.00     0.003 A 
ATOM      5  C4  UNL d   1       3.309  -3.453  -5.058  0.00  0.00    -0.005 A 
ATOM      6  C5  UNL d   1       2.172  -3.279  -4.271  0.00  0.00     0.003 A 
ATOM      7  C6  UNL d   1       2.086  -3.895  -3.021  0.00  0.00    -0.001 A 
ENDROOT
TORSDOF 0
ENDMDL
