MODEL 1
REMARK minimizedAffinity 3.69547462
REMARK minimizedRMSD -1
REMARK  0 active torsions:
REMARK  status: ('A' for Active; 'I' for Inactive)
ROOT
ATOM      1  C   UNL d   1       3.791  -5.088  -0.500  0.00  0.00     0.078 C 
ATOM      2  C1  UNL d   1       3.508  -4.498  -1.849  0.00  0.00    -0.077 A 
ATOM      3  C2  UNL d   1       4.384  -4.699  -2.923  0.00  0.00    -0.001 A 
ATOM      4  C3  UNL d   1       4.113  -4.135  -4.170  0.00  0.00     0.003 A 
ATOM      5  C4  UNL d   1       2.967  -3.366  -4.356  0.00  0.00    -0.005 A 
ATOM      6  C5  UNL d   1       2.090  -3.158  -3.293  0.00  0.00     0.003 A 
ATOM      7  C6  UNL d   1       2.360  -3.721  -2.045  0.00  0.00    -0.001 A 
ENDROOT
TORSDOF 0
ENDMDL
