MODEL 1
REMARK minimizedAffinity 3.02685595
REMARK minimizedRMSD -1
REMARK  0 active torsions:
REMARK  status: ('A' for Active; 'I' for Inactive)
ROOT
ATOM      1  C   UNL d   1       4.854  -5.109  -0.038  0.00  0.00     0.078 C 
ATOM      2  C1  UNL d   1       3.972  -4.671  -1.170  0.00  0.00    -0.077 A 
ATOM      3  C2  UNL d   1       2.898  -3.799  -0.952  0.00  0.00    -0.001 A 
ATOM      4  C3  UNL d   1       2.080  -3.407  -2.013  0.00  0.00     0.003 A 
ATOM      5  C4  UNL d   1       2.327  -3.883  -3.299  0.00  0.00    -0.005 A 
ATOM      6  C5  UNL d   1       3.392  -4.752  -3.526  0.00  0.00     0.003 A 
ATOM      7  C6  UNL d   1       4.211  -5.145  -2.466  0.00  0.00    -0.001 A 
ENDROOT
TORSDOF 0
ENDMDL
