MODEL 1
REMARK minimizedAffinity -0.438712507
REMARK minimizedRMSD -1
REMARK  0 active torsions:
REMARK  status: ('A' for Active; 'I' for Inactive)
ROOT
ATOM      1  C   UNL d   1      -4.534  -0.687   3.352  0.00  0.00     0.078 C 
ATOM      2  C1  UNL d   1      -4.755  -2.142   3.066  0.00  0.00    -0.077 A 
ATOM      3  C2  UNL d   1      -3.931  -3.122   3.634  0.00  0.00    -0.001 A 
ATOM      4  C3  UNL d   1      -4.142  -4.472   3.351  0.00  0.00     0.003 A 
ATOM      5  C4  UNL d   1      -5.176  -4.856   2.499  0.00  0.00    -0.005 A 
ATOM      6  C5  UNL d   1      -6.000  -3.888   1.928  0.00  0.00     0.003 A 
ATOM      7  C6  UNL d   1      -5.790  -2.537   2.210  0.00  0.00    -0.001 A 
ENDROOT
TORSDOF 0
ENDMDL
