MODEL 1
REMARK minimizedAffinity 4.45863581
REMARK minimizedRMSD -1
REMARK  0 active torsions:
REMARK  status: ('A' for Active; 'I' for Inactive)
ROOT
ATOM      1  C   UNL d   1       4.398  -5.115  -0.189  0.00  0.00     0.078 C 
ATOM      2  C1  UNL d   1       3.745  -4.815  -1.505  0.00  0.00    -0.077 A 
ATOM      3  C2  UNL d   1       4.394  -5.097  -2.714  0.00  0.00    -0.001 A 
ATOM      4  C3  UNL d   1       3.778  -4.803  -3.931  0.00  0.00     0.003 A 
ATOM      5  C4  UNL d   1       2.511  -4.224  -3.953  0.00  0.00    -0.005 A 
ATOM      6  C5  UNL d   1       1.858  -3.938  -2.756  0.00  0.00     0.003 A 
ATOM      7  C6  UNL d   1       2.472  -4.231  -1.537  0.00  0.00    -0.001 A 
ENDROOT
TORSDOF 0
ENDMDL
