MODEL 1
REMARK minimizedAffinity -1.66016591
REMARK minimizedRMSD -1
REMARK  0 active torsions:
REMARK  status: ('A' for Active; 'I' for Inactive)
ROOT
ATOM      1  C   UNL d   1       4.165  -4.758  -0.147  0.00  0.00     0.078 C 
ATOM      2  C1  UNL d   1       3.884  -4.519  -1.601  0.00  0.00    -0.077 A 
ATOM      3  C2  UNL d   1       4.783  -4.942  -2.588  0.00  0.00    -0.001 A 
ATOM      4  C3  UNL d   1       4.513  -4.705  -3.936  0.00  0.00     0.003 A 
ATOM      5  C4  UNL d   1       3.345  -4.043  -4.310  0.00  0.00    -0.005 A 
ATOM      6  C5  UNL d   1       2.446  -3.616  -3.335  0.00  0.00     0.003 A 
ATOM      7  C6  UNL d   1       2.714  -3.852  -1.986  0.00  0.00    -0.001 A 
ENDROOT
TORSDOF 0
ENDMDL
