MODEL 1
REMARK minimizedAffinity -1.68088245
REMARK minimizedRMSD -1
REMARK  0 active torsions:
REMARK  status: ('A' for Active; 'I' for Inactive)
ROOT
ATOM      1  C   UNL d   1       4.532  -4.642   0.037  0.00  0.00     0.078 C 
ATOM      2  C1  UNL d   1       3.847  -4.010  -1.138  0.00  0.00    -0.077 A 
ATOM      3  C2  UNL d   1       2.807  -3.091  -0.958  0.00  0.00    -0.001 A 
ATOM      4  C3  UNL d   1       2.172  -2.518  -2.061  0.00  0.00     0.003 A 
ATOM      5  C4  UNL d   1       2.570  -2.859  -3.352  0.00  0.00    -0.005 A 
ATOM      6  C5  UNL d   1       3.603  -3.775  -3.542  0.00  0.00     0.003 A 
ATOM      7  C6  UNL d   1       4.239  -4.349  -2.439  0.00  0.00    -0.001 A 
ENDROOT
TORSDOF 0
ENDMDL
