MODEL 1
REMARK minimizedAffinity 8.30174732
REMARK minimizedRMSD -1
REMARK  0 active torsions:
REMARK  status: ('A' for Active; 'I' for Inactive)
ROOT
ATOM      1  C   UNL d   1      -6.000  -2.062   1.795  0.00  0.00     0.078 C 
ATOM      2  C1  UNL d   1      -5.297  -2.953   2.775  0.00  0.00    -0.077 A 
ATOM      3  C2  UNL d   1      -5.998  -3.580   3.812  0.00  0.00    -0.001 A 
ATOM      4  C3  UNL d   1      -5.329  -4.400   4.722  0.00  0.00     0.003 A 
ATOM      5  C4  UNL d   1      -3.955  -4.599   4.606  0.00  0.00    -0.005 A 
ATOM      6  C5  UNL d   1      -3.248  -3.978   3.578  0.00  0.00     0.003 A 
ATOM      7  C6  UNL d   1      -3.915  -3.158   2.667  0.00  0.00    -0.001 A 
ENDROOT
TORSDOF 0
ENDMDL
