MODEL 1
REMARK minimizedAffinity 2.17382097
REMARK minimizedRMSD -1
REMARK  0 active torsions:
REMARK  status: ('A' for Active; 'I' for Inactive)
ROOT
ATOM      1  C   UNL d   1       4.707  -5.332  -0.462  0.00  0.00     0.078 C 
ATOM      2  C1  UNL d   1       4.095  -4.925  -1.769  0.00  0.00    -0.077 A 
ATOM      3  C2  UNL d   1       4.823  -5.006  -2.962  0.00  0.00    -0.001 A 
ATOM      4  C3  UNL d   1       4.243  -4.615  -4.170  0.00  0.00     0.003 A 
ATOM      5  C4  UNL d   1       2.934  -4.139  -4.196  0.00  0.00    -0.005 A 
ATOM      6  C5  UNL d   1       2.203  -4.052  -3.014  0.00  0.00     0.003 A 
ATOM      7  C6  UNL d   1       2.780  -4.443  -1.805  0.00  0.00    -0.001 A 
ENDROOT
TORSDOF 0
ENDMDL
