MODEL 1
REMARK minimizedAffinity -1.10777295
REMARK minimizedRMSD -1
REMARK  0 active torsions:
REMARK  status: ('A' for Active; 'I' for Inactive)
ROOT
ATOM      1  C   UNL d   1       5.998  -4.961  -0.405  0.00  0.00     0.078 C 
ATOM      2  C1  UNL d   1       4.741  -4.564  -1.120  0.00  0.00    -0.077 A 
ATOM      3  C2  UNL d   1       4.538  -4.900  -2.464  0.00  0.00    -0.001 A 
ATOM      4  C3  UNL d   1       3.368  -4.515  -3.119  0.00  0.00     0.003 A 
ATOM      5  C4  UNL d   1       2.391  -3.791  -2.438  0.00  0.00    -0.005 A 
ATOM      6  C5  UNL d   1       2.585  -3.450  -1.102  0.00  0.00     0.003 A 
ATOM      7  C6  UNL d   1       3.755  -3.833  -0.445  0.00  0.00    -0.001 A 
ENDROOT
TORSDOF 0
ENDMDL
