MODEL 1
REMARK minimizedAffinity 1.17778242
REMARK minimizedRMSD -1
REMARK  0 active torsions:
REMARK  status: ('A' for Active; 'I' for Inactive)
ROOT
ATOM      1  C   UNL d   1       1.590  -2.678  -2.956  0.00  0.00     0.078 C 
ATOM      2  C1  UNL d   1       2.573  -3.587  -2.281  0.00  0.00    -0.077 A 
ATOM      3  C2  UNL d   1       2.641  -3.666  -0.884  0.00  0.00    -0.001 A 
ATOM      4  C3  UNL d   1       3.567  -4.510  -0.269  0.00  0.00     0.003 A 
ATOM      5  C4  UNL d   1       4.433  -5.281  -1.043  0.00  0.00    -0.005 A 
ATOM      6  C5  UNL d   1       4.374  -5.208  -2.433  0.00  0.00     0.003 A 
ATOM      7  C6  UNL d   1       3.448  -4.364  -3.050  0.00  0.00    -0.001 A 
ENDROOT
TORSDOF 0
ENDMDL
