MODEL 1
REMARK minimizedAffinity -0.684561193
REMARK minimizedRMSD -1
REMARK  0 active torsions:
REMARK  status: ('A' for Active; 'I' for Inactive)
ROOT
ATOM      1  C   UNL d   1       4.701  -4.433  -0.059  0.00  0.00     0.078 C 
ATOM      2  C1  UNL d   1       3.729  -4.526  -1.197  0.00  0.00    -0.077 A 
ATOM      3  C2  UNL d   1       3.145  -3.377  -1.742  0.00  0.00    -0.001 A 
ATOM      4  C3  UNL d   1       2.233  -3.479  -2.794  0.00  0.00     0.003 A 
ATOM      5  C4  UNL d   1       1.897  -4.730  -3.309  0.00  0.00    -0.005 A 
ATOM      6  C5  UNL d   1       2.471  -5.879  -2.771  0.00  0.00     0.003 A 
ATOM      7  C6  UNL d   1       3.382  -5.779  -1.719  0.00  0.00    -0.001 A 
ENDROOT
TORSDOF 0
ENDMDL
