MODEL 1
REMARK minimizedAffinity 2.61266088
REMARK minimizedRMSD -1
REMARK  0 active torsions:
REMARK  status: ('A' for Active; 'I' for Inactive)
ROOT
ATOM      1  C   UNL d   1       4.122  -5.210  -0.106  0.00  0.00     0.078 C 
ATOM      2  C1  UNL d   1       3.584  -4.898  -1.470  0.00  0.00    -0.077 A 
ATOM      3  C2  UNL d   1       2.261  -4.474  -1.645  0.00  0.00    -0.001 A 
ATOM      4  C3  UNL d   1       1.771  -4.196  -2.922  0.00  0.00     0.003 A 
ATOM      5  C4  UNL d   1       2.597  -4.341  -4.035  0.00  0.00    -0.005 A 
ATOM      6  C5  UNL d   1       3.914  -4.766  -3.872  0.00  0.00     0.003 A 
ATOM      7  C6  UNL d   1       4.406  -5.044  -2.595  0.00  0.00    -0.001 A 
ENDROOT
TORSDOF 0
ENDMDL
