MODEL 1
REMARK minimizedAffinity -3.97813821
REMARK minimizedRMSD -1
REMARK  0 active torsions:
REMARK  status: ('A' for Active; 'I' for Inactive)
ROOT
ATOM      1  C   UNL d   1       4.171  -4.622   0.152  0.00  0.00     0.078 C 
ATOM      2  C1  UNL d   1       3.644  -4.241  -1.199  0.00  0.00    -0.077 A 
ATOM      3  C2  UNL d   1       4.378  -4.509  -2.361  0.00  0.00    -0.001 A 
ATOM      4  C3  UNL d   1       3.879  -4.140  -3.611  0.00  0.00     0.003 A 
ATOM      5  C4  UNL d   1       2.646  -3.500  -3.712  0.00  0.00    -0.005 A 
ATOM      6  C5  UNL d   1       1.909  -3.227  -2.561  0.00  0.00     0.003 A 
ATOM      7  C6  UNL d   1       2.406  -3.595  -1.309  0.00  0.00    -0.001 A 
ENDROOT
TORSDOF 0
ENDMDL
