MODEL 1
REMARK minimizedAffinity 13.709177
REMARK minimizedRMSD -1
REMARK  0 active torsions:
REMARK  status: ('A' for Active; 'I' for Inactive)
ROOT
ATOM      1  C   UNL d   1       2.520   2.255  -0.962  0.00  0.00     0.078 C 
ATOM      2  C1  UNL d   1       1.853   3.530  -0.540  0.00  0.00    -0.077 A 
ATOM      3  C2  UNL d   1       1.352   3.687   0.758  0.00  0.00    -0.001 A 
ATOM      4  C3  UNL d   1       0.725   4.876   1.134  0.00  0.00     0.003 A 
ATOM      5  C4  UNL d   1       0.591   5.916   0.217  0.00  0.00    -0.005 A 
ATOM      6  C5  UNL d   1       1.083   5.768  -1.078  0.00  0.00     0.003 A 
ATOM      7  C6  UNL d   1       1.711   4.580  -1.456  0.00  0.00    -0.001 A 
ENDROOT
TORSDOF 0
ENDMDL
