MODEL 1
REMARK minimizedAffinity 2.15672493
REMARK minimizedRMSD -1
REMARK  0 active torsions:
REMARK  status: ('A' for Active; 'I' for Inactive)
ROOT
ATOM      1  C   UNL d   1      -5.535  -1.840  -5.986  0.00  0.00     0.078 C 
ATOM      2  C1  UNL d   1      -4.571  -2.989  -5.980  0.00  0.00    -0.077 A 
ATOM      3  C2  UNL d   1      -5.026  -4.313  -5.999  0.00  0.00    -0.001 A 
ATOM      4  C3  UNL d   1      -4.117  -5.372  -5.984  0.00  0.00     0.003 A 
ATOM      5  C4  UNL d   1      -2.747  -5.118  -5.949  0.00  0.00    -0.005 A 
ATOM      6  C5  UNL d   1      -2.285  -3.803  -5.928  0.00  0.00     0.003 A 
ATOM      7  C6  UNL d   1      -3.192  -2.743  -5.943  0.00  0.00    -0.001 A 
ENDROOT
TORSDOF 0
ENDMDL
