MODEL 1
REMARK minimizedAffinity 13.0489569
REMARK minimizedRMSD -1
REMARK  0 active torsions:
REMARK  status: ('A' for Active; 'I' for Inactive)
ROOT
ATOM      1  C   UNL d   1      -5.191  -5.990  -5.982  0.00  0.00     0.078 C 
ATOM      2  C1  UNL d   1      -4.549  -4.653  -5.758  0.00  0.00    -0.077 A 
ATOM      3  C2  UNL d   1      -3.231  -4.555  -5.295  0.00  0.00    -0.001 A 
ATOM      4  C3  UNL d   1      -2.649  -3.304  -5.082  0.00  0.00     0.003 A 
ATOM      5  C4  UNL d   1      -3.379  -2.142  -5.327  0.00  0.00    -0.005 A 
ATOM      6  C5  UNL d   1      -4.692  -2.230  -5.785  0.00  0.00     0.003 A 
ATOM      7  C6  UNL d   1      -5.275  -3.480  -5.999  0.00  0.00    -0.001 A 
ENDROOT
TORSDOF 0
ENDMDL
