MODEL 1
REMARK minimizedAffinity 17.0646496
REMARK minimizedRMSD -1
REMARK  0 active torsions:
REMARK  status: ('A' for Active; 'I' for Inactive)
ROOT
ATOM      1  C   UNL d   1      -5.822   3.381   4.135  0.00  0.00     0.078 C 
ATOM      2  C1  UNL d   1      -4.877   2.261   4.449  0.00  0.00    -0.077 A 
ATOM      3  C2  UNL d   1      -4.316   2.126   5.725  0.00  0.00    -0.001 A 
ATOM      4  C3  UNL d   1      -3.429   1.083   5.999  0.00  0.00     0.003 A 
ATOM      5  C4  UNL d   1      -3.094   0.169   5.003  0.00  0.00    -0.005 A 
ATOM      6  C5  UNL d   1      -3.645   0.296   3.730  0.00  0.00     0.003 A 
ATOM      7  C6  UNL d   1      -4.532   1.338   3.453  0.00  0.00    -0.001 A 
ENDROOT
TORSDOF 0
ENDMDL
