MODEL 1
REMARK minimizedAffinity 15.1274042
REMARK minimizedRMSD -1
REMARK  0 active torsions:
REMARK  status: ('A' for Active; 'I' for Inactive)
ROOT
ATOM      1  C   UNL d   1       1.535  -2.420  -0.435  0.00  0.00    -0.002 A 
ATOM      2  C1  UNL d   1       1.938  -2.486   0.891  0.00  0.00     0.010 A 
ATOM      3  C2  UNL d   1       2.772  -1.505   1.430  0.00  0.00     0.041 A 
ATOM      4  C3  UNL d   1       3.198  -0.445   0.606  0.00  0.00    -0.075 A 
ATOM      5  S   UNL d   1       4.221   0.870   1.049  0.00  0.00     0.015 SA
ATOM      6  C4  UNL d   1       4.147   1.551  -0.511  0.00  0.00     0.022 A 
ATOM      7  C5  UNL d   1       3.366   0.806  -1.363  0.00  0.00     0.026 A 
ATOM      8  C6  UNL d   1       2.805  -0.356  -0.733  0.00  0.00    -0.082 A 
ATOM      9  C7  UNL d   1       1.960  -1.367  -1.249  0.00  0.00     0.045 A 
ENDROOT
TORSDOF 0
ENDMDL
