MODEL 1
REMARK minimizedAffinity 10.152195
REMARK minimizedRMSD -1
REMARK  0 active torsions:
REMARK  status: ('A' for Active; 'I' for Inactive)
ROOT
ATOM      1  C   UNL d   1       2.595   1.275  -0.893  0.00  0.00    -0.002 A 
ATOM      2  C1  UNL d   1       1.904   0.078  -0.764  0.00  0.00     0.010 A 
ATOM      3  C2  UNL d   1       2.390  -0.937   0.062  0.00  0.00     0.041 A 
ATOM      4  C3  UNL d   1       3.593  -0.727   0.765  0.00  0.00    -0.075 A 
ATOM      5  S   UNL d   1       4.378  -1.828   1.834  0.00  0.00     0.015 SA
ATOM      6  C4  UNL d   1       5.649  -0.736   2.146  0.00  0.00     0.022 A 
ATOM      7  C5  UNL d   1       5.494   0.445   1.459  0.00  0.00     0.026 A 
ATOM      8  C6  UNL d   1       4.306   0.469   0.652  0.00  0.00    -0.082 A 
ATOM      9  C7  UNL d   1       3.788   1.479  -0.194  0.00  0.00     0.045 A 
ENDROOT
TORSDOF 0
ENDMDL
