MODEL 1
REMARK minimizedAffinity 15.2750998
REMARK minimizedRMSD -1
REMARK  0 active torsions:
REMARK  status: ('A' for Active; 'I' for Inactive)
ROOT
ATOM      1  C   UNL d   1       5.783   1.423  -0.790  0.00  0.00    -0.002 A 
ATOM      2  C1  UNL d   1       5.119   1.793  -1.951  0.00  0.00     0.010 A 
ATOM      3  C2  UNL d   1       3.740   1.611  -2.070  0.00  0.00     0.041 A 
ATOM      4  C3  UNL d   1       3.032   1.046  -0.991  0.00  0.00    -0.075 A 
ATOM      5  S   UNL d   1       1.339   0.730  -0.910  0.00  0.00     0.015 SA
ATOM      6  C4  UNL d   1       1.457   0.098   0.668  0.00  0.00     0.022 A 
ATOM      7  C5  UNL d   1       2.749   0.119   1.137  0.00  0.00     0.026 A 
ATOM      8  C6  UNL d   1       3.678   0.667   0.189  0.00  0.00    -0.082 A 
ATOM      9  C7  UNL d   1       5.077   0.864   0.278  0.00  0.00     0.045 A 
ENDROOT
TORSDOF 0
ENDMDL
