MODEL 1
REMARK minimizedAffinity 19.0627747
REMARK minimizedRMSD -1
REMARK  0 active torsions:
REMARK  status: ('A' for Active; 'I' for Inactive)
ROOT
ATOM      1  C   UNL d   1      -5.880   4.515   5.652  0.00  0.00    -0.002 A 
ATOM      2  C1  UNL d   1      -5.918   3.132   5.550  0.00  0.00     0.010 A 
ATOM      3  C2  UNL d   1      -5.931   2.512   4.299  0.00  0.00     0.041 A 
ATOM      4  C3  UNL d   1      -5.905   3.314   3.141  0.00  0.00    -0.075 A 
ATOM      5  S   UNL d   1      -5.914   2.775   1.503  0.00  0.00     0.015 SA
ATOM      6  C4  UNL d   1      -5.868   4.368   0.901  0.00  0.00     0.022 A 
ATOM      7  C5  UNL d   1      -5.846   5.301   1.910  0.00  0.00     0.026 A 
ATOM      8  C6  UNL d   1      -5.866   4.709   3.218  0.00  0.00    -0.082 A 
ATOM      9  C7  UNL d   1      -5.854   5.307   4.501  0.00  0.00     0.045 A 
ENDROOT
TORSDOF 0
ENDMDL
