MODEL 1
REMARK minimizedAffinity 24.8305397
REMARK minimizedRMSD -1
REMARK  0 active torsions:
REMARK  status: ('A' for Active; 'I' for Inactive)
ROOT
ATOM      1  C   UNL d   1       1.148   4.438   4.317  0.00  0.00    -0.002 A 
ATOM      2  C1  UNL d   1       1.319   3.148   4.798  0.00  0.00     0.010 A 
ATOM      3  C2  UNL d   1       2.555   2.508   4.688  0.00  0.00     0.041 A 
ATOM      4  C3  UNL d   1       3.627   3.193   4.084  0.00  0.00    -0.075 A 
ATOM      5  S   UNL d   1       5.230   2.609   3.841  0.00  0.00     0.015 SA
ATOM      6  C4  UNL d   1       5.726   4.059   3.095  0.00  0.00     0.022 A 
ATOM      7  C5  UNL d   1       4.705   4.977   3.024  0.00  0.00     0.026 A 
ATOM      8  C6  UNL d   1       3.479   4.494   3.593  0.00  0.00    -0.082 A 
ATOM      9  C7  UNL d   1       2.213   5.115   3.718  0.00  0.00     0.045 A 
ENDROOT
TORSDOF 0
ENDMDL
