MODEL 1
REMARK minimizedAffinity 4.88518906
REMARK minimizedRMSD -1
REMARK  0 active torsions:
REMARK  status: ('A' for Active; 'I' for Inactive)
ROOT
ATOM      1  C   UNL d   1      -5.992   4.792   5.914  0.00  0.00    -0.002 A 
ATOM      2  C1  UNL d   1      -5.989   5.984   5.204  0.00  0.00     0.010 A 
ATOM      3  C2  UNL d   1      -5.915   5.980   3.809  0.00  0.00     0.041 A 
ATOM      4  C3  UNL d   1      -5.847   4.746   3.134  0.00  0.00    -0.075 A 
ATOM      5  S   UNL d   1      -5.752   4.497   1.431  0.00  0.00     0.015 SA
ATOM      6  C4  UNL d   1      -5.714   2.802   1.605  0.00  0.00     0.022 A 
ATOM      7  C5  UNL d   1      -5.772   2.418   2.924  0.00  0.00     0.026 A 
ATOM      8  C6  UNL d   1      -5.850   3.532   3.827  0.00  0.00    -0.082 A 
ATOM      9  C7  UNL d   1      -5.924   3.570   5.240  0.00  0.00     0.045 A 
ENDROOT
TORSDOF 0
ENDMDL
