MODEL 1
REMARK minimizedAffinity 2.23743963
REMARK minimizedRMSD -1
REMARK  0 active torsions:
REMARK  status: ('A' for Active; 'I' for Inactive)
ROOT
ATOM      1  C   UNL d   1       4.347   3.651   5.880  0.00  0.00    -0.002 A 
ATOM      2  C1  UNL d   1       4.781   4.079   4.634  0.00  0.00     0.010 A 
ATOM      3  C2  UNL d   1       4.086   3.718   3.478  0.00  0.00     0.041 A 
ATOM      4  C3  UNL d   1       2.935   2.914   3.597  0.00  0.00    -0.075 A 
ATOM      5  S   UNL d   1       1.925   2.349   2.320  0.00  0.00     0.015 SA
ATOM      6  C4  UNL d   1       0.893   1.527   3.399  0.00  0.00     0.022 A 
ATOM      7  C5  UNL d   1       1.295   1.670   4.706  0.00  0.00     0.026 A 
ATOM      8  C6  UNL d   1       2.478   2.472   4.842  0.00  0.00    -0.082 A 
ATOM      9  C7  UNL d   1       3.205   2.854   5.995  0.00  0.00     0.045 A 
ENDROOT
TORSDOF 0
ENDMDL
