MODEL 1
REMARK minimizedAffinity 0.237016156
REMARK minimizedRMSD -1
REMARK  1 active torsions:
REMARK  status: ('A' for Active; 'I' for Inactive)
REMARK    1  A    between atoms: N_2  and  C1_3 
ROOT
ATOM      1  C1  UNL d   1       1.405   2.772  -2.648  0.00  0.00     0.143 A 
ATOM      2  C2  UNL d   1       1.994   3.270  -1.481  0.00  0.00    -0.057 A 
ATOM      3  C3  UNL d   1       2.778   2.453  -0.658  0.00  0.00     0.033 A 
ATOM      4  C4  UNL d   1       2.964   1.111  -0.973  0.00  0.00    -0.042 A 
ATOM      5  C5  UNL d   1       2.368   0.588  -2.115  0.00  0.00     0.033 A 
ATOM      6  C6  UNL d   1       1.591   1.411  -2.937  0.00  0.00    -0.057 A 
ENDROOT
BRANCH   1   7
ATOM      7  N   UNL d   1       0.535   3.508  -3.456  0.00  0.00    -0.732 N 
ATOM      8  C   UNL d   1      -0.890   3.255  -3.425  0.00  0.00     0.284 C 
ATOM      9  H3  UNL d   1       0.781   4.495  -3.494  0.00  0.00     0.395 HD
ENDBRANCH   1   7
TORSDOF 1
ENDMDL
