MODEL 1
REMARK minimizedAffinity 5.33949471
REMARK minimizedRMSD -1
REMARK  1 active torsions:
REMARK  status: ('A' for Active; 'I' for Inactive)
REMARK    1  A    between atoms: N_2  and  C1_3 
ROOT
ATOM      1  C1  UNL d   1       1.279   2.353  -2.367  0.00  0.00     0.143 A 
ATOM      2  C2  UNL d   1       2.212   2.774  -1.414  0.00  0.00    -0.057 A 
ATOM      3  C3  UNL d   1       2.910   1.852  -0.624  0.00  0.00     0.033 A 
ATOM      4  C4  UNL d   1       2.664   0.489  -0.754  0.00  0.00    -0.042 A 
ATOM      5  C5  UNL d   1       1.722   0.049  -1.678  0.00  0.00     0.033 A 
ATOM      6  C6  UNL d   1       1.033   0.975  -2.468  0.00  0.00    -0.057 A 
ENDROOT
BRANCH   1   7
ATOM      7  N   UNL d   1       0.482   3.225  -3.114  0.00  0.00    -0.732 N 
ATOM      8  C   UNL d   1      -0.962   3.138  -3.054  0.00  0.00     0.284 C 
ATOM      9  H3  UNL d   1       0.841   4.177  -3.113  0.00  0.00     0.395 HD
ENDBRANCH   1   7
TORSDOF 1
ENDMDL
