MODEL 1
REMARK minimizedAffinity 5.48933697
REMARK minimizedRMSD -1
REMARK  1 active torsions:
REMARK  status: ('A' for Active; 'I' for Inactive)
REMARK    1  A    between atoms: N_2  and  C1_3 
ROOT
ATOM      1  C1  UNL d   1       1.660   2.098  -2.335  0.00  0.00     0.143 A 
ATOM      2  C2  UNL d   1       2.566   2.770  -1.507  0.00  0.00    -0.057 A 
ATOM      3  C3  UNL d   1       3.007   2.206  -0.304  0.00  0.00     0.033 A 
ATOM      4  C4  UNL d   1       2.525   0.968   0.109  0.00  0.00    -0.042 A 
ATOM      5  C5  UNL d   1       1.605   0.293  -0.686  0.00  0.00     0.033 A 
ATOM      6  C6  UNL d   1       1.174   0.858  -1.890  0.00  0.00    -0.057 A 
ENDROOT
BRANCH   1   7
ATOM      7  N   UNL d   1       1.109   2.649  -3.494  0.00  0.00    -0.732 N 
ATOM      8  C   UNL d   1      -0.206   3.252  -3.470  0.00  0.00     0.284 C 
ATOM      9  H3  UNL d   1       1.794   3.165  -4.042  0.00  0.00     0.395 HD
ENDBRANCH   1   7
TORSDOF 1
ENDMDL
