MODEL 1
REMARK minimizedAffinity -1.45118821
REMARK minimizedRMSD -1
REMARK  1 active torsions:
REMARK  status: ('A' for Active; 'I' for Inactive)
REMARK    1  A    between atoms: N_2  and  C1_3 
ROOT
ATOM      1  C1  UNL d   1       1.582  -0.663  -1.174  0.00  0.00     0.143 A 
ATOM      2  C2  UNL d   1       2.816  -1.322  -1.201  0.00  0.00    -0.057 A 
ATOM      3  C3  UNL d   1       3.140  -2.296  -0.249  0.00  0.00     0.033 A 
ATOM      4  C4  UNL d   1       2.244  -2.608   0.768  0.00  0.00    -0.042 A 
ATOM      5  C5  UNL d   1       1.022  -1.948   0.830  0.00  0.00     0.033 A 
ATOM      6  C6  UNL d   1       0.701  -0.981  -0.128  0.00  0.00    -0.057 A 
ENDROOT
BRANCH   1   7
ATOM      7  N   UNL d   1       1.240   0.384  -2.034  0.00  0.00    -0.732 N 
ATOM      8  C   UNL d   1       1.302   1.757  -1.583  0.00  0.00     0.284 C 
ATOM      9  H3  UNL d   1       1.588   0.240  -2.979  0.00  0.00     0.395 HD
ENDBRANCH   1   7
TORSDOF 1
ENDMDL
