MODEL 1
REMARK minimizedAffinity 3.16686749
REMARK minimizedRMSD -1
REMARK  1 active torsions:
REMARK  status: ('A' for Active; 'I' for Inactive)
REMARK    1  A    between atoms: N_2  and  C1_3 
ROOT
ATOM      1  C1  UNL d   1       1.446  -1.466   0.842  0.00  0.00     0.143 A 
ATOM      2  C2  UNL d   1       2.692  -1.620   0.224  0.00  0.00    -0.057 A 
ATOM      3  C3  UNL d   1       2.862  -1.358  -1.141  0.00  0.00     0.033 A 
ATOM      4  C4  UNL d   1       1.780  -0.965  -1.921  0.00  0.00    -0.042 A 
ATOM      5  C5  UNL d   1       0.527  -0.830  -1.333  0.00  0.00     0.033 A 
ATOM      6  C6  UNL d   1       0.364  -1.086   0.032  0.00  0.00    -0.057 A 
ENDROOT
BRANCH   1   7
ATOM      7  N   UNL d   1       1.191  -1.806   2.173  0.00  0.00    -0.732 N 
ATOM      8  C   UNL d   1       0.445  -0.912   3.031  0.00  0.00     0.284 C 
ATOM      9  H3  UNL d   1       0.949  -2.788   2.284  0.00  0.00     0.395 HD
ENDBRANCH   1   7
TORSDOF 1
ENDMDL
