MODEL 1
REMARK minimizedAffinity -5.49607658
REMARK minimizedRMSD -1
REMARK  0 active torsions:
REMARK  status: ('A' for Active; 'I' for Inactive)
ROOT
ATOM      1  C   UNL d   1      -3.478   0.352   1.456  0.00  0.00     0.078 C 
ATOM      2  C1  UNL d   1      -1.999   0.135   1.563  0.00  0.00    -0.077 A 
ATOM      3  C2  UNL d   1      -1.386  -0.056   2.808  0.00  0.00    -0.001 A 
ATOM      4  C3  UNL d   1      -0.006  -0.247   2.893  0.00  0.00     0.003 A 
ATOM      5  C4  UNL d   1       0.773  -0.249   1.737  0.00  0.00    -0.005 A 
ATOM      6  C5  UNL d   1       0.172  -0.058   0.495  0.00  0.00     0.003 A 
ATOM      7  C6  UNL d   1      -1.207   0.133   0.408  0.00  0.00    -0.001 A 
ENDROOT
TORSDOF 0
ENDMDL
