MODEL 1
REMARK minimizedAffinity -4.04206514
REMARK minimizedRMSD -1
REMARK  0 active torsions:
REMARK  status: ('A' for Active; 'I' for Inactive)
ROOT
ATOM      1  C   UNL d   1      -0.759   0.964  -2.422  0.00  0.00     0.078 C 
ATOM      2  C1  UNL d   1       0.356   0.085  -2.904  0.00  0.00    -0.077 A 
ATOM      3  C2  UNL d   1       0.101  -1.016  -3.731  0.00  0.00    -0.001 A 
ATOM      4  C3  UNL d   1       1.148  -1.831  -4.165  0.00  0.00     0.003 A 
ATOM      5  C4  UNL d   1       2.457  -1.556  -3.774  0.00  0.00    -0.005 A 
ATOM      6  C5  UNL d   1       2.720  -0.464  -2.949  0.00  0.00     0.003 A 
ATOM      7  C6  UNL d   1       1.675   0.352  -2.515  0.00  0.00    -0.001 A 
ENDROOT
TORSDOF 0
ENDMDL
