MODEL 1
REMARK minimizedAffinity -4.44582891
REMARK minimizedRMSD -1
REMARK  0 active torsions:
REMARK  status: ('A' for Active; 'I' for Inactive)
ROOT
ATOM      1  C   UNL d   1       1.430  -0.078  -2.367  0.00  0.00     0.078 C 
ATOM      2  C1  UNL d   1       1.089   0.212  -0.935  0.00  0.00    -0.077 A 
ATOM      3  C2  UNL d   1      -0.217   0.550  -0.559  0.00  0.00    -0.001 A 
ATOM      4  C3  UNL d   1      -0.518   0.827   0.775  0.00  0.00     0.003 A 
ATOM      5  C4  UNL d   1       0.482   0.769   1.745  0.00  0.00    -0.005 A 
ATOM      6  C5  UNL d   1       1.784   0.435   1.380  0.00  0.00     0.003 A 
ATOM      7  C6  UNL d   1       2.087   0.158   0.045  0.00  0.00    -0.001 A 
ENDROOT
TORSDOF 0
ENDMDL
