MODEL 1
REMARK minimizedAffinity -5.35632181
REMARK minimizedRMSD -1
REMARK  0 active torsions:
REMARK  status: ('A' for Active; 'I' for Inactive)
ROOT
ATOM      1  C   UNL d   1      -0.342  -1.765   2.975  0.00  0.00     0.078 C 
ATOM      2  C1  UNL d   1       0.063  -0.705   1.996  0.00  0.00    -0.077 A 
ATOM      3  C2  UNL d   1       1.180   0.106   2.232  0.00  0.00    -0.001 A 
ATOM      4  C3  UNL d   1       1.540   1.096   1.316  0.00  0.00     0.003 A 
ATOM      5  C4  UNL d   1       0.787   1.286   0.159  0.00  0.00    -0.005 A 
ATOM      6  C5  UNL d   1      -0.328   0.485  -0.083  0.00  0.00     0.003 A 
ATOM      7  C6  UNL d   1      -0.689  -0.505   0.831  0.00  0.00    -0.001 A 
ENDROOT
TORSDOF 0
ENDMDL
