MODEL 1
REMARK minimizedAffinity -5.5642705
REMARK minimizedRMSD -1
REMARK  0 active torsions:
REMARK  status: ('A' for Active; 'I' for Inactive)
ROOT
ATOM      1  C   UNL d   1       0.191  -0.416  -0.507  0.00  0.00     0.078 C 
ATOM      2  C1  UNL d   1      -0.337  -0.428   0.897  0.00  0.00    -0.077 A 
ATOM      3  C2  UNL d   1       0.402  -0.999   1.940  0.00  0.00    -0.001 A 
ATOM      4  C3  UNL d   1      -0.105  -1.012   3.240  0.00  0.00     0.003 A 
ATOM      5  C4  UNL d   1      -1.354  -0.456   3.509  0.00  0.00    -0.005 A 
ATOM      6  C5  UNL d   1      -2.098   0.112   2.477  0.00  0.00     0.003 A 
ATOM      7  C6  UNL d   1      -1.592   0.126   1.176  0.00  0.00    -0.001 A 
ENDROOT
TORSDOF 0
ENDMDL
