MODEL 1
REMARK minimizedAffinity -4.40324354
REMARK minimizedRMSD -1
REMARK  0 active torsions:
REMARK  status: ('A' for Active; 'I' for Inactive)
ROOT
ATOM      1  C   UNL d   1       0.357   0.767  -1.282  0.00  0.00     0.078 C 
ATOM      2  C1  UNL d   1       0.351   0.434   0.181  0.00  0.00    -0.077 A 
ATOM      3  C2  UNL d   1       1.545   0.370   0.911  0.00  0.00    -0.001 A 
ATOM      4  C3  UNL d   1       1.525   0.050   2.269  0.00  0.00     0.003 A 
ATOM      5  C4  UNL d   1       0.315  -0.210   2.909  0.00  0.00    -0.005 A 
ATOM      6  C5  UNL d   1      -0.877  -0.151   2.190  0.00  0.00     0.003 A 
ATOM      7  C6  UNL d   1      -0.860   0.169   0.832  0.00  0.00    -0.001 A 
ENDROOT
TORSDOF 0
ENDMDL
