MODEL 1
REMARK minimizedAffinity -5.86420202
REMARK minimizedRMSD -1
REMARK  0 active torsions:
REMARK  status: ('A' for Active; 'I' for Inactive)
ROOT
ATOM      1  C   UNL d   1       0.779  -0.543   2.605  0.00  0.00     0.078 C 
ATOM      2  C1  UNL d   1      -0.458  -0.205   1.829  0.00  0.00    -0.077 A 
ATOM      3  C2  UNL d   1      -0.449  -0.186   0.429  0.00  0.00    -0.001 A 
ATOM      4  C3  UNL d   1      -1.606   0.141  -0.280  0.00  0.00     0.003 A 
ATOM      5  C4  UNL d   1      -2.780   0.452   0.402  0.00  0.00    -0.005 A 
ATOM      6  C5  UNL d   1      -2.799   0.438   1.795  0.00  0.00     0.003 A 
ATOM      7  C6  UNL d   1      -1.643   0.112   2.506  0.00  0.00    -0.001 A 
ENDROOT
TORSDOF 0
ENDMDL
