MODEL 1
REMARK minimizedAffinity -2.98356342
REMARK minimizedRMSD -1
REMARK  0 active torsions:
REMARK  status: ('A' for Active; 'I' for Inactive)
ROOT
ATOM      1  C   UNL d   1       0.002   0.343  -1.213  0.00  0.00     0.078 C 
ATOM      2  C1  UNL d   1      -0.130   0.372   0.281  0.00  0.00    -0.077 A 
ATOM      3  C2  UNL d   1      -1.386   0.298   0.895  0.00  0.00    -0.001 A 
ATOM      4  C3  UNL d   1      -1.495   0.336   2.286  0.00  0.00     0.003 A 
ATOM      5  C4  UNL d   1      -0.351   0.450   3.074  0.00  0.00    -0.005 A 
ATOM      6  C5  UNL d   1       0.903   0.527   2.472  0.00  0.00     0.003 A 
ATOM      7  C6  UNL d   1       1.013   0.488   1.081  0.00  0.00    -0.001 A 
ENDROOT
TORSDOF 0
ENDMDL
