MODEL 1
REMARK minimizedAffinity -3.7945528
REMARK minimizedRMSD -1
REMARK  0 active torsions:
REMARK  status: ('A' for Active; 'I' for Inactive)
ROOT
ATOM      1  C   UNL d   1      -3.312   0.293   1.286  0.00  0.00     0.078 C 
ATOM      2  C1  UNL d   1      -1.829   0.241   1.498  0.00  0.00    -0.077 A 
ATOM      3  C2  UNL d   1      -0.950   0.118   0.415  0.00  0.00    -0.001 A 
ATOM      4  C3  UNL d   1       0.429   0.060   0.627  0.00  0.00     0.003 A 
ATOM      5  C4  UNL d   1       0.940   0.123   1.922  0.00  0.00    -0.005 A 
ATOM      6  C5  UNL d   1       0.073   0.243   3.006  0.00  0.00     0.003 A 
ATOM      7  C6  UNL d   1      -1.305   0.301   2.795  0.00  0.00    -0.001 A 
ENDROOT
TORSDOF 0
ENDMDL
