MODEL 1
REMARK minimizedAffinity -5.38119602
REMARK minimizedRMSD -1
REMARK  0 active torsions:
REMARK  status: ('A' for Active; 'I' for Inactive)
ROOT
ATOM      1  C   UNL d   1       0.444   0.579  -1.004  0.00  0.00     0.078 C 
ATOM      2  C1  UNL d   1       0.252   0.350   0.466  0.00  0.00    -0.077 A 
ATOM      3  C2  UNL d   1       1.230   0.737   1.390  0.00  0.00    -0.001 A 
ATOM      4  C3  UNL d   1       1.042   0.508   2.754  0.00  0.00     0.003 A 
ATOM      5  C4  UNL d   1      -0.122  -0.110   3.206  0.00  0.00    -0.005 A 
ATOM      6  C5  UNL d   1      -1.100  -0.500   2.294  0.00  0.00     0.003 A 
ATOM      7  C6  UNL d   1      -0.914  -0.272   0.929  0.00  0.00    -0.001 A 
ENDROOT
TORSDOF 0
ENDMDL
