MODEL 1
REMARK minimizedAffinity -5.35674047
REMARK minimizedRMSD -1
REMARK  0 active torsions:
REMARK  status: ('A' for Active; 'I' for Inactive)
ROOT
ATOM      1  C   UNL d   1       0.305   0.197  -0.778  0.00  0.00     0.078 C 
ATOM      2  C1  UNL d   1      -0.059  -0.058   0.655  0.00  0.00    -0.077 A 
ATOM      3  C2  UNL d   1      -1.236  -0.739   0.990  0.00  0.00    -0.001 A 
ATOM      4  C3  UNL d   1      -1.566  -0.961   2.328  0.00  0.00     0.003 A 
ATOM      5  C4  UNL d   1      -0.726  -0.504   3.341  0.00  0.00    -0.005 A 
ATOM      6  C5  UNL d   1       0.445   0.177   3.017  0.00  0.00     0.003 A 
ATOM      7  C6  UNL d   1       0.778   0.400   1.680  0.00  0.00    -0.001 A 
ENDROOT
TORSDOF 0
ENDMDL
