MODEL 1
REMARK minimizedAffinity 1.39363813
REMARK minimizedRMSD -1
REMARK  0 active torsions:
REMARK  status: ('A' for Active; 'I' for Inactive)
ROOT
ATOM      1  C   UNL d   1       4.382   2.411   1.577  0.00  0.00     0.078 C 
ATOM      2  C1  UNL d   1       3.004   1.823   1.630  0.00  0.00    -0.077 A 
ATOM      3  C2  UNL d   1       2.437   1.210   0.506  0.00  0.00    -0.001 A 
ATOM      4  C3  UNL d   1       1.149   0.676   0.568  0.00  0.00     0.003 A 
ATOM      5  C4  UNL d   1       0.416   0.750   1.751  0.00  0.00    -0.005 A 
ATOM      6  C5  UNL d   1       0.971   1.360   2.874  0.00  0.00     0.003 A 
ATOM      7  C6  UNL d   1       2.259   1.895   2.814  0.00  0.00    -0.001 A 
ENDROOT
TORSDOF 0
ENDMDL
