MODEL 1
REMARK minimizedAffinity 5.71464157
REMARK minimizedRMSD -1
REMARK  0 active torsions:
REMARK  status: ('A' for Active; 'I' for Inactive)
ROOT
ATOM      1  C   UNL d   1       0.388   0.401  -1.061  0.00  0.00     0.078 C 
ATOM      2  C1  UNL d   1       0.631   0.835   0.354  0.00  0.00    -0.077 A 
ATOM      3  C2  UNL d   1       1.932   0.968   0.854  0.00  0.00    -0.001 A 
ATOM      4  C3  UNL d   1       2.143   1.363   2.176  0.00  0.00     0.003 A 
ATOM      5  C4  UNL d   1       1.058   1.628   3.009  0.00  0.00    -0.005 A 
ATOM      6  C5  UNL d   1      -0.240   1.497   2.521  0.00  0.00     0.003 A 
ATOM      7  C6  UNL d   1      -0.453   1.102   1.199  0.00  0.00    -0.001 A 
ENDROOT
TORSDOF 0
ENDMDL
