MODEL 1
REMARK minimizedAffinity 0.872609794
REMARK minimizedRMSD -1
REMARK  0 active torsions:
REMARK  status: ('A' for Active; 'I' for Inactive)
ROOT
ATOM      1  C   UNL d   1       1.481   0.041  -1.114  0.00  0.00     0.078 C 
ATOM      2  C1  UNL d   1       1.283   0.483   0.305  0.00  0.00    -0.077 A 
ATOM      3  C2  UNL d   1       2.307   0.348   1.251  0.00  0.00    -0.001 A 
ATOM      4  C3  UNL d   1       2.106   0.755   2.571  0.00  0.00     0.003 A 
ATOM      5  C4  UNL d   1       0.882   1.298   2.958  0.00  0.00    -0.005 A 
ATOM      6  C5  UNL d   1      -0.143   1.434   2.024  0.00  0.00     0.003 A 
ATOM      7  C6  UNL d   1       0.056   1.028   0.703  0.00  0.00    -0.001 A 
ENDROOT
TORSDOF 0
ENDMDL
