MODEL 1
REMARK minimizedAffinity 0.464102417
REMARK minimizedRMSD -1
REMARK  0 active torsions:
REMARK  status: ('A' for Active; 'I' for Inactive)
ROOT
ATOM      1  C   UNL d   1       1.479   0.534   0.712  0.00  0.00     0.078 C 
ATOM      2  C1  UNL d   1       0.207   0.393  -0.070  0.00  0.00    -0.077 A 
ATOM      3  C2  UNL d   1      -0.283   1.450  -0.847  0.00  0.00    -0.001 A 
ATOM      4  C3  UNL d   1      -1.474   1.309  -1.561  0.00  0.00     0.003 A 
ATOM      5  C4  UNL d   1      -2.186   0.112  -1.504  0.00  0.00    -0.005 A 
ATOM      6  C5  UNL d   1      -1.708  -0.944  -0.732  0.00  0.00     0.003 A 
ATOM      7  C6  UNL d   1      -0.517  -0.805  -0.017  0.00  0.00    -0.001 A 
ENDROOT
TORSDOF 0
ENDMDL
