MODEL 1
REMARK minimizedAffinity -4.89932585
REMARK minimizedRMSD -1
REMARK  0 active torsions:
REMARK  status: ('A' for Active; 'I' for Inactive)
ROOT
ATOM      1  C   UNL d   1       0.691   0.268  -0.791  0.00  0.00     0.078 C 
ATOM      2  C1  UNL d   1       0.116   0.012   0.570  0.00  0.00    -0.077 A 
ATOM      3  C2  UNL d   1      -1.059  -0.733   0.728  0.00  0.00    -0.001 A 
ATOM      4  C3  UNL d   1      -1.588  -0.955   2.000  0.00  0.00     0.003 A 
ATOM      5  C4  UNL d   1      -0.950  -0.435   3.124  0.00  0.00    -0.005 A 
ATOM      6  C5  UNL d   1       0.219   0.309   2.977  0.00  0.00     0.003 A 
ATOM      7  C6  UNL d   1       0.750   0.532   1.705  0.00  0.00    -0.001 A 
ENDROOT
TORSDOF 0
ENDMDL
