MODEL 1
REMARK minimizedAffinity -5.15163088
REMARK minimizedRMSD -1
REMARK  0 active torsions:
REMARK  status: ('A' for Active; 'I' for Inactive)
ROOT
ATOM      1  C1  BNZ d   1      -0.804  -0.293   0.632  0.00  0.00     0.000 A 
ATOM      2  C2  BNZ d   1      -1.351  -0.282   1.888  0.00  0.00     0.000 A 
ATOM      3  C3  BNZ d   1      -0.560  -0.154   2.995  0.00  0.00     0.000 A 
ATOM      4  C4  BNZ d   1       0.779  -0.076   2.848  0.00  0.00     0.000 A 
ATOM      5  C5  BNZ d   1       1.346  -0.095   1.589  0.00  0.00     0.000 A 
ATOM      6  C6  BNZ d   1       0.543  -0.185   0.475  0.00  0.00     0.000 A 
ENDROOT
TORSDOF 0
ENDMDL
