MODEL 1
REMARK minimizedAffinity -4.90253925
REMARK minimizedRMSD -1
REMARK  0 active torsions:
REMARK  status: ('A' for Active; 'I' for Inactive)
ROOT
ATOM      1  C1  BNZ d   1      -1.943  -0.010   0.870  0.00  0.00     0.000 A 
ATOM      2  C2  BNZ d   1      -2.621  -0.214   2.042  0.00  0.00     0.000 A 
ATOM      3  C3  BNZ d   1      -1.951  -0.509   3.196  0.00  0.00     0.000 A 
ATOM      4  C4  BNZ d   1      -0.609  -0.639   3.169  0.00  0.00     0.000 A 
ATOM      5  C5  BNZ d   1       0.088  -0.446   1.993  0.00  0.00     0.000 A 
ATOM      6  C6  BNZ d   1      -0.586  -0.111   0.842  0.00  0.00     0.000 A 
ENDROOT
TORSDOF 0
ENDMDL
