MODEL 1
REMARK minimizedAffinity -4.89665461
REMARK minimizedRMSD -1
REMARK  0 active torsions:
REMARK  status: ('A' for Active; 'I' for Inactive)
ROOT
ATOM      1  C1  BNZ d   1      -0.679  -0.621   0.604  0.00  0.00     0.000 A 
ATOM      2  C2  BNZ d   1      -0.857  -0.931   1.926  0.00  0.00     0.000 A 
ATOM      3  C3  BNZ d   1      -0.051  -0.389   2.888  0.00  0.00     0.000 A 
ATOM      4  C4  BNZ d   1       0.956   0.431   2.523  0.00  0.00     0.000 A 
ATOM      5  C5  BNZ d   1       1.155   0.746   1.194  0.00  0.00     0.000 A 
ATOM      6  C6  BNZ d   1       0.317   0.229   0.232  0.00  0.00     0.000 A 
ENDROOT
TORSDOF 0
ENDMDL
