MODEL 1
REMARK minimizedAffinity 0.0323828273
REMARK minimizedRMSD -1
REMARK  0 active torsions:
REMARK  status: ('A' for Active; 'I' for Inactive)
ROOT
ATOM      1  C1  BNZ d   1       2.653  -0.341  -3.207  0.00  0.00     0.000 A 
ATOM      2  C2  BNZ d   1       1.351   0.055  -3.057  0.00  0.00     0.000 A 
ATOM      3  C3  BNZ d   1       0.323  -0.775  -3.409  0.00  0.00     0.000 A 
ATOM      4  C4  BNZ d   1       0.598  -1.980  -3.947  0.00  0.00     0.000 A 
ATOM      5  C5  BNZ d   1       1.906  -2.389  -4.114  0.00  0.00     0.000 A 
ATOM      6  C6  BNZ d   1       2.938  -1.568  -3.722  0.00  0.00     0.000 A 
ENDROOT
TORSDOF 0
ENDMDL
