MODEL 1
REMARK minimizedAffinity -3.87681198
REMARK minimizedRMSD -1
REMARK  0 active torsions:
REMARK  status: ('A' for Active; 'I' for Inactive)
ROOT
ATOM      1  C1  BNZ d   1       1.133   0.240   1.129  0.00  0.00     0.000 A 
ATOM      2  C2  BNZ d   1       0.656   0.345  -0.150  0.00  0.00     0.000 A 
ATOM      3  C3  BNZ d   1      -0.592  -0.112  -0.471  0.00  0.00     0.000 A 
ATOM      4  C4  BNZ d   1      -1.344  -0.708   0.476  0.00  0.00     0.000 A 
ATOM      5  C5  BNZ d   1      -0.873  -0.829   1.768  0.00  0.00     0.000 A 
ATOM      6  C6  BNZ d   1       0.368  -0.334   2.097  0.00  0.00     0.000 A 
ENDROOT
TORSDOF 0
ENDMDL
