MODEL 1
REMARK minimizedAffinity -3.12026548
REMARK minimizedRMSD -1
REMARK  0 active torsions:
REMARK  status: ('A' for Active; 'I' for Inactive)
ROOT
ATOM      1  C1  BNZ d   1       1.145   0.595   2.498  0.00  0.00     0.000 A 
ATOM      2  C2  BNZ d   1       1.681   0.376   1.257  0.00  0.00     0.000 A 
ATOM      3  C3  BNZ d   1       0.879   0.301   0.152  0.00  0.00     0.000 A 
ATOM      4  C4  BNZ d   1      -0.458   0.404   0.294  0.00  0.00     0.000 A 
ATOM      5  C5  BNZ d   1      -1.014   0.615   1.540  0.00  0.00     0.000 A 
ATOM      6  C6  BNZ d   1      -0.202   0.729   2.645  0.00  0.00     0.000 A 
ENDROOT
TORSDOF 0
ENDMDL
