MODEL 1
REMARK minimizedAffinity -2.7488966
REMARK minimizedRMSD -1
REMARK  0 active torsions:
REMARK  status: ('A' for Active; 'I' for Inactive)
ROOT
ATOM      1  C1  BNZ d   1      -0.892  -0.119   2.682  0.00  0.00     0.000 A 
ATOM      2  C2  BNZ d   1      -1.123  -0.482   1.382  0.00  0.00     0.000 A 
ATOM      3  C3  BNZ d   1      -0.203  -0.213   0.407  0.00  0.00     0.000 A 
ATOM      4  C4  BNZ d   1       0.926   0.453   0.725  0.00  0.00     0.000 A 
ATOM      5  C5  BNZ d   1       1.168   0.833   2.030  0.00  0.00     0.000 A 
ATOM      6  C6  BNZ d   1       0.258   0.527   3.016  0.00  0.00     0.000 A 
ENDROOT
TORSDOF 0
ENDMDL
