MODEL 1
REMARK minimizedAffinity -1.2368573
REMARK minimizedRMSD -1
REMARK  0 active torsions:
REMARK  status: ('A' for Active; 'I' for Inactive)
ROOT
ATOM      1  C1  BNZ d   1       1.202   0.227   0.455  0.00  0.00     0.000 A 
ATOM      2  C2  BNZ d   1       0.453  -0.071   1.562  0.00  0.00     0.000 A 
ATOM      3  C3  BNZ d   1      -0.888  -0.310   1.456  0.00  0.00     0.000 A 
ATOM      4  C4  BNZ d   1      -1.487  -0.211   0.252  0.00  0.00     0.000 A 
ATOM      5  C5  BNZ d   1      -0.747   0.099  -0.873  0.00  0.00     0.000 A 
ATOM      6  C6  BNZ d   1       0.610   0.300  -0.769  0.00  0.00     0.000 A 
ENDROOT
TORSDOF 0
ENDMDL
