MODEL 1
REMARK minimizedAffinity -0.879608691
REMARK minimizedRMSD -1
REMARK  0 active torsions:
REMARK  status: ('A' for Active; 'I' for Inactive)
ROOT
ATOM      1  C1  BNZ d   1      -0.375  -1.511  -2.162  0.00  0.00     0.000 A 
ATOM      2  C2  BNZ d   1       0.115  -2.304  -3.164  0.00  0.00     0.000 A 
ATOM      3  C3  BNZ d   1       1.095  -1.849  -4.002  0.00  0.00     0.000 A 
ATOM      4  C4  BNZ d   1       1.554  -0.589  -3.861  0.00  0.00     0.000 A 
ATOM      5  C5  BNZ d   1       1.064   0.227  -2.861  0.00  0.00     0.000 A 
ATOM      6  C6  BNZ d   1       0.106  -0.248  -1.995  0.00  0.00     0.000 A 
ENDROOT
TORSDOF 0
ENDMDL
