MODEL 1
REMARK minimizedAffinity -4.22384357
REMARK minimizedRMSD -1
REMARK  0 active torsions:
REMARK  status: ('A' for Active; 'I' for Inactive)
ROOT
ATOM      1  C1  BNZ d   1       1.267   0.459   1.629  0.00  0.00     0.000 A 
ATOM      2  C2  BNZ d   1       0.691   0.265   2.856  0.00  0.00     0.000 A 
ATOM      3  C3  BNZ d   1      -0.480  -0.430   2.977  0.00  0.00     0.000 A 
ATOM      4  C4  BNZ d   1      -1.094  -0.894   1.870  0.00  0.00     0.000 A 
ATOM      5  C5  BNZ d   1      -0.530  -0.699   0.625  0.00  0.00     0.000 A 
ATOM      6  C6  BNZ d   1       0.669  -0.033   0.510  0.00  0.00     0.000 A 
ENDROOT
TORSDOF 0
ENDMDL
