MODEL 1
REMARK minimizedAffinity -5.10947657
REMARK minimizedRMSD -1
REMARK  0 active torsions:
REMARK  status: ('A' for Active; 'I' for Inactive)
ROOT
ATOM      1  C1  BNZ d   1      -0.247  -0.072   0.288  0.00  0.00     0.000 A 
ATOM      2  C2  BNZ d   1      -0.742  -0.762   1.363  0.00  0.00     0.000 A 
ATOM      3  C3  BNZ d   1      -0.021  -0.868   2.519  0.00  0.00     0.000 A 
ATOM      4  C4  BNZ d   1       1.210  -0.320   2.585  0.00  0.00     0.000 A 
ATOM      5  C5  BNZ d   1       1.727   0.370   1.507  0.00  0.00     0.000 A 
ATOM      6  C6  BNZ d   1       0.982   0.509   0.359  0.00  0.00     0.000 A 
ENDROOT
TORSDOF 0
ENDMDL
