MODEL 1
REMARK minimizedAffinity -1.21187556
REMARK minimizedRMSD -1
REMARK  0 active torsions:
REMARK  status: ('A' for Active; 'I' for Inactive)
ROOT
ATOM      1  C1  BNZ d   1       2.304  -0.305  -2.769  0.00  0.00     0.000 A 
ATOM      2  C2  BNZ d   1       1.028   0.115  -2.503  0.00  0.00     0.000 A 
ATOM      3  C3  BNZ d   1      -0.050  -0.621  -2.909  0.00  0.00     0.000 A 
ATOM      4  C4  BNZ d   1       0.148  -1.754  -3.615  0.00  0.00     0.000 A 
ATOM      5  C5  BNZ d   1       1.428  -2.185  -3.899  0.00  0.00     0.000 A 
ATOM      6  C6  BNZ d   1       2.512  -1.462  -3.455  0.00  0.00     0.000 A 
ENDROOT
TORSDOF 0
ENDMDL
