MODEL 1
REMARK minimizedAffinity -3.71283722
REMARK minimizedRMSD -1
REMARK  0 active torsions:
REMARK  status: ('A' for Active; 'I' for Inactive)
ROOT
ATOM      1  C1  BNZ d   1      -1.377  -0.610   0.705  0.00  0.00     0.000 A 
ATOM      2  C2  BNZ d   1      -2.686  -0.298   0.955  0.00  0.00     0.000 A 
ATOM      3  C3  BNZ d   1      -3.102   0.017   2.219  0.00  0.00     0.000 A 
ATOM      4  C4  BNZ d   1      -2.217  -0.021   3.236  0.00  0.00     0.000 A 
ATOM      5  C5  BNZ d   1      -0.895  -0.343   3.002  0.00  0.00     0.000 A 
ATOM      6  C6  BNZ d   1      -0.473  -0.621   1.722  0.00  0.00     0.000 A 
ENDROOT
TORSDOF 0
ENDMDL
