MODEL 1
REMARK minimizedAffinity -2.59072518
REMARK minimizedRMSD -1
REMARK  0 active torsions:
REMARK  status: ('A' for Active; 'I' for Inactive)
ROOT
ATOM      1  C1  BNZ d   1       0.803   0.883   2.161  0.00  0.00     0.000 A 
ATOM      2  C2  BNZ d   1       0.471   1.364   0.922  0.00  0.00     0.000 A 
ATOM      3  C3  BNZ d   1       0.409   0.530  -0.159  0.00  0.00     0.000 A 
ATOM      4  C4  BNZ d   1       0.717  -0.774  -0.009  0.00  0.00     0.000 A 
ATOM      5  C5  BNZ d   1       1.063  -1.273   1.231  0.00  0.00     0.000 A 
ATOM      6  C6  BNZ d   1       1.087  -0.438   2.325  0.00  0.00     0.000 A 
ENDROOT
TORSDOF 0
ENDMDL
