MODEL 1
REMARK minimizedAffinity -2.7752316
REMARK minimizedRMSD -1
REMARK  0 active torsions:
REMARK  status: ('A' for Active; 'I' for Inactive)
ROOT
ATOM      1  C1  BNZ d   1       1.292   0.663   0.602  0.00  0.00     0.000 A 
ATOM      2  C2  BNZ d   1       1.456   0.856   1.948  0.00  0.00     0.000 A 
ATOM      3  C3  BNZ d   1       0.406   0.709   2.810  0.00  0.00     0.000 A 
ATOM      4  C4  BNZ d   1      -0.815   0.409   2.322  0.00  0.00     0.000 A 
ATOM      5  C5  BNZ d   1      -1.000   0.222   0.967  0.00  0.00     0.000 A 
ATOM      6  C6  BNZ d   1       0.068   0.332   0.106  0.00  0.00     0.000 A 
ENDROOT
TORSDOF 0
ENDMDL
