MODEL 1
REMARK minimizedAffinity -3.1882453
REMARK minimizedRMSD -1
REMARK  1 active torsions:
REMARK  status: ('A' for Active; 'I' for Inactive)
REMARK    1  A    between atoms: C1_2  and  C2_3 
ROOT
ATOM      1  C2  UNL d   1       0.333  -0.336  -1.045  0.00  0.00    -0.081 A 
ATOM      2  C3  UNL d   1      -1.050  -0.231  -0.851  0.00  0.00     0.006 A 
ATOM      3  C4  UNL d   1      -1.562   0.249   0.357  0.00  0.00     0.002 A 
ATOM      4  C5  UNL d   1      -0.700   0.640   1.387  0.00  0.00    -0.080 A 
ATOM      5  C6  UNL d   1      -1.236   1.186   2.677  0.00  0.00     0.076 C 
ATOM      6  C7  UNL d   1       0.681   0.519   1.200  0.00  0.00     0.002 A 
ATOM      7  C8  UNL d   1       1.193   0.038  -0.007  0.00  0.00     0.006 A 
ENDROOT
BRANCH   1   8
ATOM      8  C1  UNL d   1       0.889  -0.793  -2.369  0.00  0.00     0.054 C 
ATOM      9  C   UNL d   1       1.339   0.388  -3.217  0.00  0.00     0.018 C 
ENDBRANCH   1   8
TORSDOF 1
ENDMDL
