MODEL 1
REMARK minimizedAffinity -5.23608351
REMARK minimizedRMSD -1
REMARK  1 active torsions:
REMARK  status: ('A' for Active; 'I' for Inactive)
REMARK    1  A    between atoms: C1_2  and  C2_3 
ROOT
ATOM      1  C2  UNL d   1       0.240  -0.223  -0.216  0.00  0.00    -0.081 A 
ATOM      2  C3  UNL d   1      -0.980   0.308   0.219  0.00  0.00     0.006 A 
ATOM      3  C4  UNL d   1      -1.119   0.788   1.523  0.00  0.00     0.002 A 
ATOM      4  C5  UNL d   1      -0.038   0.752   2.411  0.00  0.00    -0.080 A 
ATOM      5  C6  UNL d   1      -0.165   1.292   3.805  0.00  0.00     0.076 C 
ATOM      6  C7  UNL d   1       1.176   0.206   1.982  0.00  0.00     0.002 A 
ATOM      7  C8  UNL d   1       1.315  -0.275   0.678  0.00  0.00     0.006 A 
ENDROOT
BRANCH   1   8
ATOM      8  C1  UNL d   1       0.411  -0.682  -1.642  0.00  0.00     0.054 C 
ATOM      9  C   UNL d   1       1.100   0.381  -2.486  0.00  0.00     0.018 C 
ENDBRANCH   1   8
TORSDOF 1
ENDMDL
