MODEL 1
REMARK minimizedAffinity -0.220836118
REMARK minimizedRMSD -1
REMARK  1 active torsions:
REMARK  status: ('A' for Active; 'I' for Inactive)
REMARK    1  A    between atoms: C1_2  and  C2_3 
ROOT
ATOM      1  C2  UNL d   1      -1.110   0.247   0.457  0.00  0.00    -0.081 A 
ATOM      2  C3  UNL d   1       0.162  -0.319   0.309  0.00  0.00     0.006 A 
ATOM      3  C4  UNL d   1       0.929  -0.051  -0.827  0.00  0.00     0.002 A 
ATOM      4  C5  UNL d   1       0.440   0.793  -1.830  0.00  0.00    -0.080 A 
ATOM      5  C6  UNL d   1       1.265   1.113  -3.041  0.00  0.00     0.076 C 
ATOM      6  C7  UNL d   1      -0.838   1.344  -1.692  0.00  0.00     0.002 A 
ATOM      7  C8  UNL d   1      -1.606   1.076  -0.556  0.00  0.00     0.006 A 
ENDROOT
BRANCH   1   8
ATOM      8  C1  UNL d   1      -1.913   0.012   1.711  0.00  0.00     0.054 C 
ATOM      9  C   UNL d   1      -1.122   0.393   2.954  0.00  0.00     0.018 C 
ENDBRANCH   1   8
TORSDOF 1
ENDMDL
