MODEL 1
REMARK minimizedAffinity -5.22995472
REMARK minimizedRMSD -1
REMARK  1 active torsions:
REMARK  status: ('A' for Active; 'I' for Inactive)
REMARK    1  A    between atoms: C1_2  and  C2_3 
ROOT
ATOM      1  C2  UNL d   1       0.266  -0.265  -0.570  0.00  0.00    -0.081 A 
ATOM      2  C3  UNL d   1      -1.067   0.062  -0.290  0.00  0.00     0.006 A 
ATOM      3  C4  UNL d   1      -1.421   0.584   0.956  0.00  0.00     0.002 A 
ATOM      4  C5  UNL d   1      -0.450   0.795   1.940  0.00  0.00    -0.080 A 
ATOM      5  C6  UNL d   1      -0.812   1.384   3.271  0.00  0.00     0.076 C 
ATOM      6  C7  UNL d   1       0.879   0.452   1.667  0.00  0.00     0.002 A 
ATOM      7  C8  UNL d   1       1.234  -0.071   0.422  0.00  0.00     0.006 A 
ENDROOT
BRANCH   1   8
ATOM      8  C1  UNL d   1       0.662  -0.768  -1.934  0.00  0.00     0.054 C 
ATOM      9  C   UNL d   1       1.666  -1.907  -1.834  0.00  0.00     0.018 C 
ENDBRANCH   1   8
TORSDOF 1
ENDMDL
