MODEL 1
REMARK minimizedAffinity -1.75968647
REMARK minimizedRMSD -1
REMARK  1 active torsions:
REMARK  status: ('A' for Active; 'I' for Inactive)
REMARK    1  A    between atoms: C1_2  and  C2_3 
ROOT
ATOM      1  C2  UNL d   1      -0.106  -0.044  -0.191  0.00  0.00    -0.077 A 
ATOM      2  C3  UNL d   1      -0.926   0.298  -1.276  0.00  0.00     0.002 A 
ATOM      3  C4  UNL d   1      -0.365   0.594  -2.520  0.00  0.00     0.002 A 
ATOM      4  C5  UNL d   1       1.017   0.547  -2.692  0.00  0.00    -0.004 A 
ATOM      5  C6  UNL d   1       1.841   0.210  -1.619  0.00  0.00     0.002 A 
ATOM      6  C7  UNL d   1       1.282  -0.085  -0.374  0.00  0.00     0.002 A 
ENDROOT
BRANCH   1   7
ATOM      7  C1  UNL d   1      -0.712  -0.412   1.138  0.00  0.00     0.055 C 
ATOM      8  C   UNL d   1      -2.200  -0.093   1.175  0.00  0.00     0.019 C 
ENDBRANCH   1   7
TORSDOF 1
ENDMDL
