MODEL 1
REMARK minimizedAffinity -4.19112015
REMARK minimizedRMSD -1
REMARK  1 active torsions:
REMARK  status: ('A' for Active; 'I' for Inactive)
REMARK    1  A    between atoms: C1_2  and  C2_3 
ROOT
ATOM      1  C2  UNL d   1       0.180   0.408  -0.196  0.00  0.00    -0.077 A 
ATOM      2  C3  UNL d   1      -0.216  -0.570  -1.119  0.00  0.00     0.002 A 
ATOM      3  C4  UNL d   1       0.492  -0.745  -2.310  0.00  0.00     0.002 A 
ATOM      4  C5  UNL d   1       1.601   0.051  -2.586  0.00  0.00    -0.004 A 
ATOM      5  C6  UNL d   1       2.001   1.028  -1.675  0.00  0.00     0.002 A 
ATOM      6  C7  UNL d   1       1.294   1.205  -0.485  0.00  0.00     0.002 A 
ENDROOT
BRANCH   1   7
ATOM      7  C1  UNL d   1      -0.553   0.565   1.111  0.00  0.00     0.055 C 
ATOM      8  C   UNL d   1      -2.034   0.252   0.957  0.00  0.00     0.019 C 
ENDBRANCH   1   7
TORSDOF 1
ENDMDL
