MODEL 1
REMARK minimizedAffinity -4.38628006
REMARK minimizedRMSD -1
REMARK  1 active torsions:
REMARK  status: ('A' for Active; 'I' for Inactive)
REMARK    1  A    between atoms: C1_2  and  C2_3 
ROOT
ATOM      1  C2  UNL d   1       1.255  -1.205  -1.694  0.00  0.00    -0.077 A 
ATOM      2  C3  UNL d   1       1.847  -0.077  -2.279  0.00  0.00     0.002 A 
ATOM      3  C4  UNL d   1       1.566   1.201  -1.791  0.00  0.00     0.002 A 
ATOM      4  C5  UNL d   1       0.697   1.362  -0.714  0.00  0.00    -0.004 A 
ATOM      5  C6  UNL d   1       0.102   0.246  -0.127  0.00  0.00     0.002 A 
ATOM      6  C7  UNL d   1       0.380  -1.032  -0.614  0.00  0.00     0.002 A 
ENDROOT
BRANCH   1   7
ATOM      7  C1  UNL d   1       1.594  -2.587  -2.187  0.00  0.00     0.055 C 
ATOM      8  C   UNL d   1       2.713  -3.209  -1.365  0.00  0.00     0.019 C 
ENDBRANCH   1   7
TORSDOF 1
ENDMDL
