MODEL 1
REMARK minimizedAffinity -3.27497172
REMARK minimizedRMSD -1
REMARK  1 active torsions:
REMARK  status: ('A' for Active; 'I' for Inactive)
REMARK    1  A    between atoms: C1_2  and  C2_3 
ROOT
ATOM      1  C2  UNL d   1      -0.261   0.037   0.638  0.00  0.00    -0.077 A 
ATOM      2  C3  UNL d   1       0.153  -1.125  -0.028  0.00  0.00     0.002 A 
ATOM      3  C4  UNL d   1       1.047  -1.045  -1.097  0.00  0.00     0.002 A 
ATOM      4  C5  UNL d   1       1.538   0.193  -1.506  0.00  0.00    -0.004 A 
ATOM      5  C6  UNL d   1       1.131   1.355  -0.851  0.00  0.00     0.002 A 
ATOM      6  C7  UNL d   1       0.236   1.277   0.217  0.00  0.00     0.002 A 
ENDROOT
BRANCH   1   7
ATOM      7  C1  UNL d   1      -1.188  -0.051   1.823  0.00  0.00     0.055 C 
ATOM      8  C   UNL d   1      -2.632   0.206   1.417  0.00  0.00     0.019 C 
ENDBRANCH   1   7
TORSDOF 1
ENDMDL
