MODEL 1
REMARK minimizedAffinity -4.73408127
REMARK minimizedRMSD -1
REMARK  1 active torsions:
REMARK  status: ('A' for Active; 'I' for Inactive)
REMARK    1  A    between atoms: C1_2  and  C2_3 
ROOT
ATOM      1  C2  UNL d   1       1.307  -0.409  -2.017  0.00  0.00    -0.077 A 
ATOM      2  C3  UNL d   1       0.326  -1.156  -1.349  0.00  0.00     0.002 A 
ATOM      3  C4  UNL d   1       0.449  -2.542  -1.237  0.00  0.00     0.002 A 
ATOM      4  C5  UNL d   1       1.551  -3.193  -1.786  0.00  0.00    -0.004 A 
ATOM      5  C6  UNL d   1       2.531  -2.459  -2.455  0.00  0.00     0.002 A 
ATOM      6  C7  UNL d   1       2.410  -1.074  -2.569  0.00  0.00     0.002 A 
ENDROOT
BRANCH   1   7
ATOM      7  C1  UNL d   1       1.202   1.092  -2.096  0.00  0.00     0.055 C 
ATOM      8  C   UNL d   1       0.912   1.699  -0.732  0.00  0.00     0.019 C 
ENDBRANCH   1   7
TORSDOF 1
ENDMDL
