MODEL 1
REMARK minimizedAffinity -2.76511168
REMARK minimizedRMSD -1
REMARK  1 active torsions:
REMARK  status: ('A' for Active; 'I' for Inactive)
REMARK    1  A    between atoms: C1_2  and  C2_3 
ROOT
ATOM      1  C2  UNL d   1      -1.162   0.427   0.834  0.00  0.00    -0.077 A 
ATOM      2  C3  UNL d   1      -0.433   1.545   0.403  0.00  0.00     0.002 A 
ATOM      3  C4  UNL d   1       0.607   1.398  -0.516  0.00  0.00     0.002 A 
ATOM      4  C5  UNL d   1       0.925   0.137  -1.015  0.00  0.00    -0.004 A 
ATOM      5  C6  UNL d   1       0.208  -0.981  -0.592  0.00  0.00     0.002 A 
ATOM      6  C7  UNL d   1      -0.832  -0.837   0.328  0.00  0.00     0.002 A 
ENDROOT
BRANCH   1   7
ATOM      7  C1  UNL d   1      -2.317   0.590   1.787  0.00  0.00     0.055 C 
ATOM      8  C   UNL d   1      -3.512  -0.248   1.357  0.00  0.00     0.019 C 
ENDBRANCH   1   7
TORSDOF 1
ENDMDL
