MODEL 1
REMARK minimizedAffinity -4.9326973
REMARK minimizedRMSD -1
REMARK  1 active torsions:
REMARK  status: ('A' for Active; 'I' for Inactive)
REMARK    1  A    between atoms: C1_2  and  C2_3 
ROOT
ATOM      1  C2  UNL d   1       0.028  -0.672  -0.048  0.00  0.00    -0.077 A 
ATOM      2  C3  UNL d   1      -0.094  -1.404  -1.238  0.00  0.00     0.002 A 
ATOM      3  C4  UNL d   1       0.581  -0.996  -2.390  0.00  0.00     0.002 A 
ATOM      4  C5  UNL d   1       1.385   0.141  -2.363  0.00  0.00    -0.004 A 
ATOM      5  C6  UNL d   1       1.512   0.876  -1.185  0.00  0.00     0.002 A 
ATOM      6  C7  UNL d   1       0.837   0.471  -0.032  0.00  0.00     0.002 A 
ENDROOT
BRANCH   1   7
ATOM      7  C1  UNL d   1      -0.659  -1.138   1.209  0.00  0.00     0.055 C 
ATOM      8  C   UNL d   1      -1.967  -0.393   1.433  0.00  0.00     0.019 C 
ENDBRANCH   1   7
TORSDOF 1
ENDMDL
