MODEL 1
REMARK minimizedAffinity -2.30841756
REMARK minimizedRMSD -1
REMARK  1 active torsions:
REMARK  status: ('A' for Active; 'I' for Inactive)
REMARK    1  A    between atoms: C1_2  and  C2_3 
ROOT
ATOM      1  C2  UNL d   1       0.162   0.082   0.399  0.00  0.00    -0.077 A 
ATOM      2  C3  UNL d   1       0.109   1.430   0.015  0.00  0.00     0.002 A 
ATOM      3  C4  UNL d   1       0.574   1.825  -1.241  0.00  0.00     0.002 A 
ATOM      4  C5  UNL d   1       1.090   0.879  -2.124  0.00  0.00    -0.004 A 
ATOM      5  C6  UNL d   1       1.148  -0.463  -1.751  0.00  0.00     0.002 A 
ATOM      6  C7  UNL d   1       0.685  -0.860  -0.496  0.00  0.00     0.002 A 
ENDROOT
BRANCH   1   7
ATOM      7  C1  UNL d   1      -0.384  -0.353   1.733  0.00  0.00     0.055 C 
ATOM      8  C   UNL d   1      -1.778   0.210   1.972  0.00  0.00     0.019 C 
ENDBRANCH   1   7
TORSDOF 1
ENDMDL
