MODEL 1
REMARK minimizedAffinity -2.66561151
REMARK minimizedRMSD -1
REMARK  1 active torsions:
REMARK  status: ('A' for Active; 'I' for Inactive)
REMARK    1  A    between atoms: C1_2  and  C2_3 
ROOT
ATOM      1  C2  UNL d   1      -0.340  -0.252   0.324  0.00  0.00    -0.077 A 
ATOM      2  C3  UNL d   1      -0.244  -0.198  -1.073  0.00  0.00     0.002 A 
ATOM      3  C4  UNL d   1       0.056  -1.348  -1.806  0.00  0.00     0.002 A 
ATOM      4  C5  UNL d   1       0.259  -2.560  -1.151  0.00  0.00    -0.004 A 
ATOM      5  C6  UNL d   1       0.168  -2.624   0.239  0.00  0.00     0.002 A 
ATOM      6  C7  UNL d   1      -0.131  -1.476   0.973  0.00  0.00     0.002 A 
ENDROOT
BRANCH   1   7
ATOM      7  C1  UNL d   1      -0.712   0.976   1.112  0.00  0.00     0.055 C 
ATOM      8  C   UNL d   1      -1.965   0.742   1.944  0.00  0.00     0.019 C 
ENDBRANCH   1   7
TORSDOF 1
ENDMDL
