MODEL 1
REMARK minimizedAffinity -3.88068986
REMARK minimizedRMSD -1
REMARK  1 active torsions:
REMARK  status: ('A' for Active; 'I' for Inactive)
REMARK    1  A    between atoms: C1_2  and  C2_3 
ROOT
ATOM      1  C2  UNL d   1       0.721   0.178  -1.393  0.00  0.00    -0.077 A 
ATOM      2  C3  UNL d   1       1.076   1.313  -0.650  0.00  0.00     0.002 A 
ATOM      3  C4  UNL d   1       0.669   1.442   0.679  0.00  0.00     0.002 A 
ATOM      4  C5  UNL d   1      -0.090   0.439   1.278  0.00  0.00    -0.004 A 
ATOM      5  C6  UNL d   1      -0.450  -0.693   0.547  0.00  0.00     0.002 A 
ATOM      6  C7  UNL d   1      -0.046  -0.823  -0.782  0.00  0.00     0.002 A 
ENDROOT
BRANCH   1   7
ATOM      7  C1  UNL d   1       1.199   0.014  -2.812  0.00  0.00     0.055 C 
ATOM      8  C   UNL d   1       2.674   0.366  -2.943  0.00  0.00     0.019 C 
ENDBRANCH   1   7
TORSDOF 1
ENDMDL
