MODEL 1
REMARK minimizedAffinity -5.46447897
REMARK minimizedRMSD -1
REMARK  1 active torsions:
REMARK  status: ('A' for Active; 'I' for Inactive)
REMARK    1  A    between atoms: C1_2  and  C2_3 
ROOT
ATOM      1  C2  UNL d   1       0.224  -1.007  -0.851  0.00  0.00    -0.077 A 
ATOM      2  C3  UNL d   1      -0.116  -1.963   0.117  0.00  0.00     0.002 A 
ATOM      3  C4  UNL d   1      -0.413  -1.571   1.423  0.00  0.00     0.002 A 
ATOM      4  C5  UNL d   1      -0.378  -0.222   1.773  0.00  0.00    -0.004 A 
ATOM      5  C6  UNL d   1      -0.039   0.736   0.818  0.00  0.00     0.002 A 
ATOM      6  C7  UNL d   1       0.259   0.345  -0.488  0.00  0.00     0.002 A 
ENDROOT
BRANCH   1   7
ATOM      7  C1  UNL d   1       0.497  -1.424  -2.273  0.00  0.00     0.055 C 
ATOM      8  C   UNL d   1       1.243  -0.338  -3.034  0.00  0.00     0.019 C 
ENDBRANCH   1   7
TORSDOF 1
ENDMDL
