MODEL 1
REMARK minimizedAffinity -3.91946363
REMARK minimizedRMSD -1
REMARK  1 active torsions:
REMARK  status: ('A' for Active; 'I' for Inactive)
REMARK    1  A    between atoms: C1_2  and  C2_3 
ROOT
ATOM      1  C2  UNL d   1      -1.369  -0.199   0.660  0.00  0.00    -0.077 A 
ATOM      2  C3  UNL d   1      -1.278   0.063   2.034  0.00  0.00     0.002 A 
ATOM      3  C4  UNL d   1      -2.433   0.181   2.809  0.00  0.00     0.002 A 
ATOM      4  C5  UNL d   1      -3.687   0.036   2.220  0.00  0.00    -0.004 A 
ATOM      5  C6  UNL d   1      -3.789  -0.222   0.854  0.00  0.00     0.002 A 
ATOM      6  C7  UNL d   1      -2.635  -0.340   0.077  0.00  0.00     0.002 A 
ENDROOT
BRANCH   1   7
ATOM      7  C1  UNL d   1      -0.123  -0.376  -0.168  0.00  0.00     0.055 C 
ATOM      8  C   UNL d   1       0.345   0.949  -0.754  0.00  0.00     0.019 C 
ENDBRANCH   1   7
TORSDOF 1
ENDMDL
