MODEL 1
REMARK minimizedAffinity -4.09310961
REMARK minimizedRMSD -1
REMARK  1 active torsions:
REMARK  status: ('A' for Active; 'I' for Inactive)
REMARK    1  A    between atoms: C1_2  and  C2_3 
ROOT
ATOM      1  C2  UNL d   1      -0.895   0.508   0.703  0.00  0.00    -0.077 A 
ATOM      2  C3  UNL d   1      -0.006   1.523   0.325  0.00  0.00     0.002 A 
ATOM      3  C4  UNL d   1       0.863   1.336  -0.752  0.00  0.00     0.002 A 
ATOM      4  C5  UNL d   1       0.848   0.138  -1.462  0.00  0.00    -0.004 A 
ATOM      5  C6  UNL d   1      -0.032  -0.879  -1.092  0.00  0.00     0.002 A 
ATOM      6  C7  UNL d   1      -0.900  -0.695  -0.015  0.00  0.00     0.002 A 
ENDROOT
BRANCH   1   7
ATOM      7  C1  UNL d   1      -1.867   0.726   1.833  0.00  0.00     0.055 C 
ATOM      8  C   UNL d   1      -3.305   0.716   1.336  0.00  0.00     0.019 C 
ENDBRANCH   1   7
TORSDOF 1
ENDMDL
