MODEL 1
REMARK minimizedAffinity -1.62804103
REMARK minimizedRMSD -1
REMARK  0 active torsions:
REMARK  status: ('A' for Active; 'I' for Inactive)
ROOT
ATOM      1  N1  IND d   1       0.621  -1.296   2.374  0.00  0.00    -0.196 N 
ATOM      2  C2  IND d   1      -0.522  -0.786   2.924  0.00  0.00     0.054 A 
ATOM      3  C3  IND d   1      -1.262  -0.164   1.979  0.00  0.00    -0.031 A 
ATOM      4  C4  IND d   1      -0.838   0.050  -0.552  0.00  0.00     0.051 A 
ATOM      5  C5  IND d   1       0.092  -0.223  -1.515  0.00  0.00    -0.031 A 
ATOM      6  C6  IND d   1       1.269  -0.883  -1.226  0.00  0.00     0.015 A 
ATOM      7  C7  IND d   1       1.555  -1.307   0.041  0.00  0.00    -0.016 A 
ATOM      8  C8  IND d   1       0.616  -1.025   1.023  0.00  0.00    -0.047 A 
ATOM      9  C9  IND d   1      -0.561  -0.318   0.744  0.00  0.00    -0.096 A 
ATOM     10  HN1 IND d   1       1.239  -1.714   2.800  0.00  0.00     0.298 HD
ENDROOT
TORSDOF 0
ENDMDL
