MODEL 1
REMARK minimizedAffinity -5.67460632
REMARK minimizedRMSD -1
REMARK  0 active torsions:
REMARK  status: ('A' for Active; 'I' for Inactive)
ROOT
ATOM      1  N1  IND d   1       0.717  -0.570  -1.017  0.00  0.00    -0.196 N 
ATOM      2  C2  IND d   1      -0.409   0.158  -0.751  0.00  0.00     0.054 A 
ATOM      3  C3  IND d   1      -0.699   0.110   0.569  0.00  0.00    -0.031 A 
ATOM      4  C4  IND d   1       0.596  -1.017   2.488  0.00  0.00     0.051 A 
ATOM      5  C5  IND d   1       1.666  -1.830   2.733  0.00  0.00    -0.031 A 
ATOM      6  C6  IND d   1       2.494  -2.272   1.721  0.00  0.00     0.015 A 
ATOM      7  C7  IND d   1       2.287  -1.905   0.421  0.00  0.00    -0.016 A 
ATOM      8  C8  IND d   1       1.196  -1.086   0.167  0.00  0.00    -0.047 A 
ATOM      9  C9  IND d   1       0.328  -0.669   1.185  0.00  0.00    -0.096 A 
ATOM     10  HN1 IND d   1       1.067  -0.687  -1.794  0.00  0.00     0.298 HD
ENDROOT
TORSDOF 0
ENDMDL
