MODEL 1
REMARK minimizedAffinity -2.1677022
REMARK minimizedRMSD -1
REMARK  0 active torsions:
REMARK  status: ('A' for Active; 'I' for Inactive)
ROOT
ATOM      1  N1  IND d   1       0.842   0.818  -0.407  0.00  0.00    -0.196 N 
ATOM      2  C2  IND d   1       0.105  -0.302  -0.144  0.00  0.00     0.054 A 
ATOM      3  C3  IND d   1      -1.080  -0.248  -0.793  0.00  0.00    -0.031 A 
ATOM      4  C4  IND d   1      -1.974   1.537  -2.419  0.00  0.00     0.051 A 
ATOM      5  C5  IND d   1      -1.675   2.763  -2.943  0.00  0.00    -0.031 A 
ATOM      6  C6  IND d   1      -0.497   3.416  -2.644  0.00  0.00     0.015 A 
ATOM      7  C7  IND d   1       0.436   2.859  -1.816  0.00  0.00    -0.016 A 
ATOM      8  C8  IND d   1       0.133   1.617  -1.276  0.00  0.00    -0.047 A 
ATOM      9  C9  IND d   1      -1.081   0.969  -1.542  0.00  0.00    -0.096 A 
ATOM     10  HN1 IND d   1       1.619   0.995  -0.083  0.00  0.00     0.298 HD
ENDROOT
TORSDOF 0
ENDMDL
