MODEL 1
REMARK minimizedAffinity -1.23959827
REMARK minimizedRMSD -1
REMARK  0 active torsions:
REMARK  status: ('A' for Active; 'I' for Inactive)
ROOT
ATOM      1  N1  IND d   1      -0.338   0.096   0.356  0.00  0.00    -0.196 N 
ATOM      2  C2  IND d   1      -0.661   0.653   1.562  0.00  0.00     0.054 A 
ATOM      3  C3  IND d   1      -0.896   1.977   1.420  0.00  0.00    -0.031 A 
ATOM      4  C4  IND d   1      -0.907   3.417  -0.714  0.00  0.00     0.051 A 
ATOM      5  C5  IND d   1      -0.636   3.361  -2.053  0.00  0.00    -0.031 A 
ATOM      6  C6  IND d   1      -0.246   2.190  -2.670  0.00  0.00     0.015 A 
ATOM      7  C7  IND d   1      -0.124   1.023  -1.970  0.00  0.00    -0.016 A 
ATOM      8  C8  IND d   1      -0.392   1.077  -0.609  0.00  0.00    -0.047 A 
ATOM      9  C9  IND d   1      -0.746   2.272   0.030  0.00  0.00    -0.096 A 
ATOM     10  HN1 IND d   1      -0.135  -0.729   0.223  0.00  0.00     0.298 HD
ENDROOT
TORSDOF 0
ENDMDL
