MODEL 1
REMARK minimizedAffinity -4.37857533
REMARK minimizedRMSD -1
REMARK  0 active torsions:
REMARK  status: ('A' for Active; 'I' for Inactive)
ROOT
ATOM      1  N1  IND d   1       0.684  -1.056  -1.325  0.00  0.00    -0.196 N 
ATOM      2  C2  IND d   1      -0.483  -0.358  -1.180  0.00  0.00     0.054 A 
ATOM      3  C3  IND d   1      -0.922  -0.437   0.096  0.00  0.00    -0.031 A 
ATOM      4  C4  IND d   1       0.167  -1.571   2.135  0.00  0.00     0.051 A 
ATOM      5  C5  IND d   1       1.221  -2.364   2.490  0.00  0.00    -0.031 A 
ATOM      6  C6  IND d   1       2.171  -2.769   1.574  0.00  0.00     0.015 A 
ATOM      7  C7  IND d   1       2.108  -2.383   0.265  0.00  0.00    -0.016 A 
ATOM      8  C8  IND d   1       1.035  -1.583  -0.101  0.00  0.00    -0.047 A 
ATOM      9  C9  IND d   1       0.045  -1.205   0.815  0.00  0.00    -0.096 A 
ATOM     10  HN1 IND d   1       1.124  -1.151  -2.057  0.00  0.00     0.298 HD
ENDROOT
TORSDOF 0
ENDMDL
