MODEL 1
REMARK minimizedAffinity -3.87823367
REMARK minimizedRMSD -1
REMARK  0 active torsions:
REMARK  status: ('A' for Active; 'I' for Inactive)
ROOT
ATOM      1  N1  IND d   1      -0.224   0.084  -0.866  0.00  0.00    -0.196 N 
ATOM      2  C2  IND d   1      -1.226   0.573  -0.075  0.00  0.00     0.054 A 
ATOM      3  C3  IND d   1      -1.176   0.006   1.151  0.00  0.00    -0.031 A 
ATOM      4  C4  IND d   1       0.525  -1.672   2.110  0.00  0.00     0.051 A 
ATOM      5  C5  IND d   1       1.599  -2.438   1.755  0.00  0.00    -0.031 A 
ATOM      6  C6  IND d   1       2.133  -2.400   0.483  0.00  0.00     0.015 A 
ATOM      7  C7  IND d   1       1.617  -1.582  -0.482  0.00  0.00    -0.016 A 
ATOM      8  C8  IND d   1       0.522  -0.808  -0.127  0.00  0.00    -0.047 A 
ATOM      9  C9  IND d   1      -0.051  -0.874   1.149  0.00  0.00    -0.096 A 
ATOM     10  HN1 IND d   1      -0.084   0.297  -1.687  0.00  0.00     0.298 HD
ENDROOT
TORSDOF 0
ENDMDL
