MODEL 1
REMARK minimizedAffinity -4.3032608
REMARK minimizedRMSD -1
REMARK  0 active torsions:
REMARK  status: ('A' for Active; 'I' for Inactive)
ROOT
ATOM      1  N1  IND d   1      -0.405  -0.454   0.429  0.00  0.00    -0.196 N 
ATOM      2  C2  IND d   1      -0.928   0.307   1.437  0.00  0.00     0.054 A 
ATOM      3  C3  IND d   1      -1.298   1.520   0.968  0.00  0.00    -0.031 A 
ATOM      4  C4  IND d   1      -1.230   2.433  -1.438  0.00  0.00     0.051 A 
ATOM      5  C5  IND d   1      -0.801   2.120  -2.697  0.00  0.00    -0.031 A 
ATOM      6  C6  IND d   1      -0.209   0.907  -2.985  0.00  0.00     0.015 A 
ATOM      7  C7  IND d   1      -0.033  -0.046  -2.022  0.00  0.00    -0.016 A 
ATOM      8  C8  IND d   1      -0.461   0.271  -0.741  0.00  0.00    -0.047 A 
ATOM      9  C9  IND d   1      -1.024   1.517  -0.434  0.00  0.00    -0.096 A 
ATOM     10  HN1 IND d   1      -0.093  -1.251   0.512  0.00  0.00     0.298 HD
ENDROOT
TORSDOF 0
ENDMDL
