MODEL 1
REMARK minimizedAffinity -1.80196273
REMARK minimizedRMSD -1
REMARK  0 active torsions:
REMARK  status: ('A' for Active; 'I' for Inactive)
ROOT
ATOM      1  N1  IND d   1       2.115  -1.954  -0.270  0.00  0.00    -0.196 N 
ATOM      2  C2  IND d   1       2.624  -2.744   0.723  0.00  0.00     0.054 A 
ATOM      3  C3  IND d   1       1.932  -2.563   1.870  0.00  0.00    -0.031 A 
ATOM      4  C4  IND d   1      -0.136  -1.097   2.318  0.00  0.00     0.051 A 
ATOM      5  C5  IND d   1      -0.944  -0.165   1.729  0.00  0.00    -0.031 A 
ATOM      6  C6  IND d   1      -0.772   0.223   0.416  0.00  0.00     0.015 A 
ATOM      7  C7  IND d   1       0.212  -0.316  -0.363  0.00  0.00    -0.016 A 
ATOM      8  C8  IND d   1       1.039  -1.257   0.234  0.00  0.00    -0.047 A 
ATOM      9  C9  IND d   1       0.896  -1.624   1.578  0.00  0.00    -0.096 A 
ATOM     10  HN1 IND d   1       2.416  -1.901  -1.074  0.00  0.00     0.298 HD
ENDROOT
TORSDOF 0
ENDMDL
