MODEL 1
REMARK minimizedAffinity -1.39027917
REMARK minimizedRMSD -1
REMARK  0 active torsions:
REMARK  status: ('A' for Active; 'I' for Inactive)
ROOT
ATOM      1  N1  IND d   1      -0.320   0.905  -2.223  0.00  0.00    -0.196 N 
ATOM      2  C2  IND d   1      -1.296   1.858  -2.314  0.00  0.00     0.054 A 
ATOM      3  C3  IND d   1      -2.021   1.899  -1.174  0.00  0.00    -0.031 A 
ATOM      4  C4  IND d   1      -1.718   0.564   1.006  0.00  0.00     0.051 A 
ATOM      5  C5  IND d   1      -0.985  -0.450   1.555  0.00  0.00    -0.031 A 
ATOM      6  C6  IND d   1       0.030  -1.075   0.859  0.00  0.00     0.015 A 
ATOM      7  C7  IND d   1       0.358  -0.700  -0.413  0.00  0.00    -0.016 A 
ATOM      8  C8  IND d   1      -0.389   0.325  -0.976  0.00  0.00    -0.047 A 
ATOM      9  C9  IND d   1      -1.448   0.934  -0.290  0.00  0.00    -0.096 A 
ATOM     10  HN1 IND d   1       0.242   0.702  -2.841  0.00  0.00     0.298 HD
ENDROOT
TORSDOF 0
ENDMDL
