MODEL 1
REMARK minimizedAffinity -3.49949837
REMARK minimizedRMSD -1
REMARK  0 active torsions:
REMARK  status: ('A' for Active; 'I' for Inactive)
ROOT
ATOM      1  N1  IND d   1       1.956  -2.257  -0.752  0.00  0.00    -0.196 N 
ATOM      2  C2  IND d   1       2.643  -2.841   0.276  0.00  0.00     0.054 A 
ATOM      3  C3  IND d   1       2.115  -2.473   1.464  0.00  0.00    -0.031 A 
ATOM      4  C4  IND d   1       0.060  -1.002   1.956  0.00  0.00     0.051 A 
ATOM      5  C5  IND d   1      -0.872  -0.213   1.341  0.00  0.00    -0.031 A 
ATOM      6  C6  IND d   1      -0.911  -0.065  -0.030  0.00  0.00     0.015 A 
ATOM      7  C7  IND d   1      -0.023  -0.711  -0.842  0.00  0.00    -0.016 A 
ATOM      8  C8  IND d   1       0.929  -1.507  -0.222  0.00  0.00    -0.047 A 
ATOM      9  C9  IND d   1       1.000  -1.628   1.172  0.00  0.00    -0.096 A 
ATOM     10  HN1 IND d   1       2.135  -2.343  -1.588  0.00  0.00     0.298 HD
ENDROOT
TORSDOF 0
ENDMDL
