MODEL 1
REMARK minimizedAffinity 2.61068249
REMARK minimizedRMSD -1
REMARK  0 active torsions:
REMARK  status: ('A' for Active; 'I' for Inactive)
ROOT
ATOM      1  C1  BNZ d   1       0.837  -3.864  -1.006  0.00  0.00     0.000 A 
ATOM      2  C2  BNZ d   1       1.673  -3.714   0.068  0.00  0.00     0.000 A 
ATOM      3  C3  BNZ d   1       2.995  -4.049  -0.022  0.00  0.00     0.000 A 
ATOM      4  C4  BNZ d   1       3.470  -4.571  -1.171  0.00  0.00     0.000 A 
ATOM      5  C5  BNZ d   1       2.638  -4.737  -2.260  0.00  0.00     0.000 A 
ATOM      6  C6  BNZ d   1       1.316  -4.362  -2.178  0.00  0.00     0.000 A 
ENDROOT
TORSDOF 0
ENDMDL
