MODEL 1
REMARK minimizedAffinity -2.33285785
REMARK minimizedRMSD -1
REMARK  0 active torsions:
REMARK  status: ('A' for Active; 'I' for Inactive)
ROOT
ATOM      1  C1  BNZ d   1      -4.867  -3.805  -5.984  0.00  0.00     0.000 A 
ATOM      2  C2  BNZ d   1      -3.714  -3.828  -5.245  0.00  0.00     0.000 A 
ATOM      3  C3  BNZ d   1      -3.370  -4.935  -4.520  0.00  0.00     0.000 A 
ATOM      4  C4  BNZ d   1      -4.197  -6.000  -4.503  0.00  0.00     0.000 A 
ATOM      5  C5  BNZ d   1      -5.367  -5.988  -5.235  0.00  0.00     0.000 A 
ATOM      6  C6  BNZ d   1      -5.691  -4.888  -5.995  0.00  0.00     0.000 A 
ENDROOT
TORSDOF 0
ENDMDL
