MODEL 1
REMARK minimizedAffinity 15.3414698
REMARK minimizedRMSD -1
REMARK  0 active torsions:
REMARK  status: ('A' for Active; 'I' for Inactive)
ROOT
ATOM      1  C1  BNZ d   1      -0.356  -1.871   5.999  0.00  0.00     0.000 A 
ATOM      2  C2  BNZ d   1      -0.086  -0.997   4.980  0.00  0.00     0.000 A 
ATOM      3  C3  BNZ d   1      -0.977  -0.814   3.960  0.00  0.00     0.000 A 
ATOM      4  C4  BNZ d   1      -2.117  -1.533   3.939  0.00  0.00     0.000 A 
ATOM      5  C5  BNZ d   1      -2.400  -2.425   4.954  0.00  0.00     0.000 A 
ATOM      6  C6  BNZ d   1      -1.519  -2.578   6.000  0.00  0.00     0.000 A 
ENDROOT
TORSDOF 0
ENDMDL
