MODEL 1
REMARK minimizedAffinity 6.18883276
REMARK minimizedRMSD -1
REMARK  0 active torsions:
REMARK  status: ('A' for Active; 'I' for Inactive)
ROOT
ATOM      1  C1  BNZ d   1      -4.530   1.119  -5.640  0.00  0.00     0.000 A 
ATOM      2  C2  BNZ d   1      -4.976   0.874  -4.369  0.00  0.00     0.000 A 
ATOM      3  C3  BNZ d   1      -5.057   1.881  -3.449  0.00  0.00     0.000 A 
ATOM      4  C4  BNZ d   1      -4.655   3.123  -3.789  0.00  0.00     0.000 A 
ATOM      5  C5  BNZ d   1      -4.195   3.385  -5.064  0.00  0.00     0.000 A 
ATOM      6  C6  BNZ d   1      -4.152   2.376  -5.999  0.00  0.00     0.000 A 
ENDROOT
TORSDOF 0
ENDMDL
