MODEL 1
REMARK minimizedAffinity 5.94827461
REMARK minimizedRMSD -1
REMARK  0 active torsions:
REMARK  status: ('A' for Active; 'I' for Inactive)
ROOT
ATOM      1  C1  BNZ d   1       0.821  -6.000  -1.813  0.00  0.00     0.000 A 
ATOM      2  C2  BNZ d   1       1.678  -6.000  -0.745  0.00  0.00     0.000 A 
ATOM      3  C3  BNZ d   1       1.889  -4.862  -0.017  0.00  0.00     0.000 A 
ATOM      4  C4  BNZ d   1       1.275  -3.718  -0.382  0.00  0.00     0.000 A 
ATOM      5  C5  BNZ d   1       0.415  -3.700  -1.462  0.00  0.00     0.000 A 
ATOM      6  C6  BNZ d   1       0.175  -4.856  -2.168  0.00  0.00     0.000 A 
ENDROOT
TORSDOF 0
ENDMDL
