MODEL 1
REMARK minimizedAffinity 3.51454115
REMARK minimizedRMSD -1
REMARK  0 active torsions:
REMARK  status: ('A' for Active; 'I' for Inactive)
ROOT
ATOM      1  C1  BNZ d   1      -1.099   1.998   2.132  0.00  0.00     0.000 A 
ATOM      2  C2  BNZ d   1      -1.557   2.655   1.021  0.00  0.00     0.000 A 
ATOM      3  C3  BNZ d   1      -0.687   3.113   0.071  0.00  0.00     0.000 A 
ATOM      4  C4  BNZ d   1       0.639   2.950   0.253  0.00  0.00     0.000 A 
ATOM      5  C5  BNZ d   1       1.117   2.298   1.372  0.00  0.00     0.000 A 
ATOM      6  C6  BNZ d   1       0.236   1.804   2.307  0.00  0.00     0.000 A 
ENDROOT
TORSDOF 0
ENDMDL
