MODEL 1
REMARK minimizedAffinity 6.51649904
REMARK minimizedRMSD -1
REMARK  0 active torsions:
REMARK  status: ('A' for Active; 'I' for Inactive)
ROOT
ATOM      1  C1  BNZ d   1       5.983  -3.319  -1.405  0.00  0.00     0.000 A 
ATOM      2  C2  BNZ d   1       5.982  -3.784  -0.117  0.00  0.00     0.000 A 
ATOM      3  C3  BNZ d   1       5.997  -5.125   0.143  0.00  0.00     0.000 A 
ATOM      4  C4  BNZ d   1       5.973  -6.000  -0.883  0.00  0.00     0.000 A 
ATOM      5  C5  BNZ d   1       5.964  -5.547  -2.187  0.00  0.00     0.000 A 
ATOM      6  C6  BNZ d   1       5.988  -4.196  -2.445  0.00  0.00     0.000 A 
ENDROOT
TORSDOF 0
ENDMDL
