MODEL 1
REMARK minimizedAffinity 12.9116182
REMARK minimizedRMSD -1
REMARK  0 active torsions:
REMARK  status: ('A' for Active; 'I' for Inactive)
ROOT
ATOM      1  C   UNL d   1       2.699   2.248   3.227  0.00  0.00     0.020 A 
ATOM      2  C1  UNL d   1       1.760   1.359   3.750  0.00  0.00     0.020 A 
ATOM      3  C2  UNL d   1       1.526   0.138   3.115  0.00  0.00     0.034 A 
ATOM      4  C3  UNL d   1       2.231  -0.199   1.954  0.00  0.00     0.017 A 
ATOM      5  C4  UNL d   1       3.173   0.694   1.430  0.00  0.00     0.017 A 
ATOM      6  C5  UNL d   1       3.404   1.916   2.070  0.00  0.00     0.034 A 
ATOM      7 Cl   UNL d   1       4.082   0.349   0.001  0.00  0.00    -0.070 Cl
ATOM      8 Cl1  UNL d   1       1.891  -1.726   1.222  0.00  0.00    -0.070 Cl
ENDROOT
TORSDOF 0
ENDMDL
