MODEL 1
REMARK minimizedAffinity 9.72462559
REMARK minimizedRMSD -1
REMARK  0 active torsions:
REMARK  status: ('A' for Active; 'I' for Inactive)
ROOT
ATOM      1  C   UNL d   1       1.010  -5.994   0.844  0.00  0.00     0.020 A 
ATOM      2  C1  UNL d   1       0.299  -5.999  -0.355  0.00  0.00     0.020 A 
ATOM      3  C2  UNL d   1       0.983  -5.956  -1.572  0.00  0.00     0.034 A 
ATOM      4  C3  UNL d   1       2.382  -5.908  -1.592  0.00  0.00     0.017 A 
ATOM      5  C4  UNL d   1       3.094  -5.903  -0.387  0.00  0.00     0.017 A 
ATOM      6  C5  UNL d   1       2.404  -5.946   0.828  0.00  0.00     0.034 A 
ATOM      7 Cl   UNL d   1       4.821  -5.844  -0.331  0.00  0.00    -0.070 Cl
ATOM      8 Cl1  UNL d   1       3.163  -5.857  -3.132  0.00  0.00    -0.070 Cl
ENDROOT
TORSDOF 0
ENDMDL
