MODEL 1
REMARK minimizedAffinity 0.19977358
REMARK minimizedRMSD -1
REMARK  0 active torsions:
REMARK  status: ('A' for Active; 'I' for Inactive)
ROOT
ATOM      1  C   UNL d   1       4.834  -5.996  -4.525  0.00  0.00     0.020 A 
ATOM      2  C1  UNL d   1       3.953  -5.997  -5.606  0.00  0.00     0.020 A 
ATOM      3  C2  UNL d   1       2.575  -5.998  -5.383  0.00  0.00     0.034 A 
ATOM      4  C3  UNL d   1       2.073  -5.999  -4.076  0.00  0.00     0.017 A 
ATOM      5  C4  UNL d   1       2.958  -5.998  -2.992  0.00  0.00     0.017 A 
ATOM      6  C5  UNL d   1       4.337  -5.997  -3.221  0.00  0.00     0.034 A 
ATOM      7 Cl   UNL d   1       2.414  -5.999  -1.352  0.00  0.00    -0.070 Cl
ATOM      8 Cl1  UNL d   1       0.357  -6.000  -3.875  0.00  0.00    -0.070 Cl
ENDROOT
TORSDOF 0
ENDMDL
