MODEL 1
REMARK minimizedAffinity 3.78256941
REMARK minimizedRMSD -1
REMARK  0 active torsions:
REMARK  status: ('A' for Active; 'I' for Inactive)
ROOT
ATOM      1  C   UNL d   1       5.923  -4.567   1.598  0.00  0.00     0.020 A 
ATOM      2  C1  UNL d   1       6.000  -3.201   1.868  0.00  0.00     0.020 A 
ATOM      3  C2  UNL d   1       5.073  -2.607   2.727  0.00  0.00     0.034 A 
ATOM      4  C3  UNL d   1       4.066  -3.378   3.319  0.00  0.00     0.017 A 
ATOM      5  C4  UNL d   1       3.990  -4.748   3.046  0.00  0.00     0.017 A 
ATOM      6  C5  UNL d   1       4.921  -5.339   2.185  0.00  0.00     0.034 A 
ATOM      7 Cl   UNL d   1       2.775  -5.765   3.738  0.00  0.00    -0.070 Cl
ATOM      8 Cl1  UNL d   1       2.954  -2.577   4.371  0.00  0.00    -0.070 Cl
ENDROOT
TORSDOF 0
ENDMDL
