MODEL 1
REMARK minimizedAffinity 8.29474068
REMARK minimizedRMSD -1
REMARK  0 active torsions:
REMARK  status: ('A' for Active; 'I' for Inactive)
ROOT
ATOM      1  C   UNL d   1       5.410  -6.000  -1.551  0.00  0.00     0.020 A 
ATOM      2  C1  UNL d   1       5.438  -5.854  -2.937  0.00  0.00     0.020 A 
ATOM      3  C2  UNL d   1       4.249  -5.666  -3.644  0.00  0.00     0.034 A 
ATOM      4  C3  UNL d   1       3.026  -5.623  -2.965  0.00  0.00     0.017 A 
ATOM      5  C4  UNL d   1       2.998  -5.769  -1.573  0.00  0.00     0.017 A 
ATOM      6  C5  UNL d   1       4.193  -5.957  -0.870  0.00  0.00     0.034 A 
ATOM      7 Cl   UNL d   1       1.528  -5.726  -0.665  0.00  0.00    -0.070 Cl
ATOM      8 Cl1  UNL d   1       1.594  -5.387  -3.902  0.00  0.00    -0.070 Cl
ENDROOT
TORSDOF 0
ENDMDL
