MODEL 1
REMARK minimizedAffinity 2.40702963
REMARK minimizedRMSD -1
REMARK  0 active torsions:
REMARK  status: ('A' for Active; 'I' for Inactive)
ROOT
ATOM      1  C   UNL d   1       2.392  -5.996  -2.413  0.00  0.00     0.020 A 
ATOM      2  C1  UNL d   1       3.528  -5.989  -1.604  0.00  0.00     0.020 A 
ATOM      3  C2  UNL d   1       3.394  -5.985  -0.214  0.00  0.00     0.034 A 
ATOM      4  C3  UNL d   1       2.122  -5.987   0.371  0.00  0.00     0.017 A 
ATOM      5  C4  UNL d   1       0.983  -5.994  -0.442  0.00  0.00     0.017 A 
ATOM      6  C5  UNL d   1       1.123  -5.999  -1.834  0.00  0.00     0.034 A 
ATOM      7 Cl   UNL d   1      -0.619  -5.998   0.206  0.00  0.00    -0.070 Cl
ATOM      8 Cl1  UNL d   1       2.032  -5.982   2.097  0.00  0.00    -0.070 Cl
ENDROOT
TORSDOF 0
ENDMDL
