MODEL 1
REMARK minimizedAffinity 4.38464403
REMARK minimizedRMSD -1
REMARK  0 active torsions:
REMARK  status: ('A' for Active; 'I' for Inactive)
ROOT
ATOM      1  C   UNL d   1       2.505  -0.916   1.799  0.00  0.00     0.020 A 
ATOM      2  C1  UNL d   1       1.859  -0.186   2.796  0.00  0.00     0.020 A 
ATOM      3  C2  UNL d   1       1.499  -0.807   3.993  0.00  0.00     0.034 A 
ATOM      4  C3  UNL d   1       1.784  -2.162   4.197  0.00  0.00     0.017 A 
ATOM      5  C4  UNL d   1       2.432  -2.894   3.195  0.00  0.00     0.017 A 
ATOM      6  C5  UNL d   1       2.791  -2.267   1.998  0.00  0.00     0.034 A 
ATOM      7 Cl   UNL d   1       2.817  -4.569   3.374  0.00  0.00    -0.070 Cl
ATOM      8 Cl1  UNL d   1       1.310  -2.865   5.702  0.00  0.00    -0.070 Cl
ENDROOT
TORSDOF 0
ENDMDL
