MODEL 1
REMARK minimizedAffinity -3.6040194
REMARK minimizedRMSD -1
REMARK  0 active torsions:
REMARK  status: ('A' for Active; 'I' for Inactive)
ROOT
ATOM      1  C   UNL d   1       2.177  -6.000  -1.657  0.00  0.00     0.020 A 
ATOM      2  C1  UNL d   1       3.560  -5.901  -1.511  0.00  0.00     0.020 A 
ATOM      3  C2  UNL d   1       4.376  -5.801  -2.639  0.00  0.00     0.034 A 
ATOM      4  C3  UNL d   1       3.810  -5.800  -3.919  0.00  0.00     0.017 A 
ATOM      5  C4  UNL d   1       2.422  -5.900  -4.065  0.00  0.00     0.017 A 
ATOM      6  C5  UNL d   1       1.609  -5.999  -2.932  0.00  0.00     0.034 A 
ATOM      7 Cl   UNL d   1       1.651  -5.905  -5.612  0.00  0.00    -0.070 Cl
ATOM      8 Cl1  UNL d   1       4.880  -5.673  -5.270  0.00  0.00    -0.070 Cl
ENDROOT
TORSDOF 0
ENDMDL
