MODEL 1
REMARK minimizedAffinity 5.3160882
REMARK minimizedRMSD -1
REMARK  0 active torsions:
REMARK  status: ('A' for Active; 'I' for Inactive)
ROOT
ATOM      1  C   UNL d   1      -4.810   3.445   1.961  0.00  0.00     0.020 A 
ATOM      2  C1  UNL d   1      -5.353   3.982   0.795  0.00  0.00     0.020 A 
ATOM      3  C2  UNL d   1      -4.915   3.530  -0.452  0.00  0.00     0.034 A 
ATOM      4  C3  UNL d   1      -3.932   2.538  -0.535  0.00  0.00     0.017 A 
ATOM      5  C4  UNL d   1      -3.387   1.999   0.637  0.00  0.00     0.017 A 
ATOM      6  C5  UNL d   1      -3.829   2.456   1.882  0.00  0.00     0.034 A 
ATOM      7 Cl   UNL d   1      -2.171   0.772   0.614  0.00  0.00    -0.070 Cl
ATOM      8 Cl1  UNL d   1      -3.438   2.026  -2.110  0.00  0.00    -0.070 Cl
ENDROOT
TORSDOF 0
ENDMDL
