MODEL 1
REMARK minimizedAffinity 4.73878288
REMARK minimizedRMSD -1
REMARK  0 active torsions:
REMARK  status: ('A' for Active; 'I' for Inactive)
ROOT
ATOM      1  C   UNL d   1       1.656  -3.696   5.263  0.00  0.00     0.020 A 
ATOM      2  C1  UNL d   1       0.661  -2.856   4.767  0.00  0.00     0.020 A 
ATOM      3  C2  UNL d   1       1.004  -1.760   3.972  0.00  0.00     0.034 A 
ATOM      4  C3  UNL d   1       2.346  -1.502   3.670  0.00  0.00     0.017 A 
ATOM      5  C4  UNL d   1       3.345  -2.346   4.169  0.00  0.00     0.017 A 
ATOM      6  C5  UNL d   1       2.995  -3.442   4.965  0.00  0.00     0.034 A 
ATOM      7 Cl   UNL d   1       5.023  -2.092   3.840  0.00  0.00    -0.070 Cl
ATOM      8 Cl1  UNL d   1       2.698  -0.130   2.681  0.00  0.00    -0.070 Cl
ENDROOT
TORSDOF 0
ENDMDL
