MODEL 1
REMARK minimizedAffinity -0.361408412
REMARK minimizedRMSD -1
REMARK  0 active torsions:
REMARK  status: ('A' for Active; 'I' for Inactive)
ROOT
ATOM      1  N1  IND d   1       0.684  -0.315  -0.513  0.00  0.00    -0.196 N 
ATOM      2  C2  IND d   1      -0.398  -0.929   0.055  0.00  0.00     0.054 A 
ATOM      3  C3  IND d   1      -1.172  -0.022   0.693  0.00  0.00    -0.031 A 
ATOM      4  C4  IND d   1      -0.910   2.534   0.845  0.00  0.00     0.051 A 
ATOM      5  C5  IND d   1      -0.059   3.551   0.515  0.00  0.00    -0.031 A 
ATOM      6  C6  IND d   1       1.106   3.327  -0.191  0.00  0.00     0.015 A 
ATOM      7  C7  IND d   1       1.458   2.074  -0.605  0.00  0.00    -0.016 A 
ATOM      8  C8  IND d   1       0.600   1.038  -0.266  0.00  0.00    -0.047 A 
ATOM      9  C9  IND d   1      -0.562   1.253   0.487  0.00  0.00    -0.096 A 
ATOM     10  HN1 IND d   1       1.311  -0.707  -0.951  0.00  0.00     0.298 HD
ENDROOT
TORSDOF 0
ENDMDL
