MODEL 1
REMARK minimizedAffinity -4.95847273
REMARK minimizedRMSD -1
REMARK  0 active torsions:
REMARK  status: ('A' for Active; 'I' for Inactive)
ROOT
ATOM      1  N1  IND d   1       0.580  -0.695  -0.036  0.00  0.00    -0.196 N 
ATOM      2  C2  IND d   1      -0.504  -1.263   0.573  0.00  0.00     0.054 A 
ATOM      3  C3  IND d   1      -1.380  -0.308   0.961  0.00  0.00    -0.031 A 
ATOM      4  C4  IND d   1      -1.285   2.240   0.606  0.00  0.00     0.051 A 
ATOM      5  C5  IND d   1      -0.473   3.232   0.132  0.00  0.00    -0.031 A 
ATOM      6  C6  IND d   1       0.755   2.960  -0.436  0.00  0.00     0.015 A 
ATOM      7  C7  IND d   1       1.214   1.679  -0.562  0.00  0.00    -0.016 A 
ATOM      8  C8  IND d   1       0.395   0.670  -0.076  0.00  0.00    -0.047 A 
ATOM      9  C9  IND d   1      -0.833   0.943   0.540  0.00  0.00    -0.096 A 
ATOM     10  HN1 IND d   1       1.262  -1.118  -0.343  0.00  0.00     0.298 HD
ENDROOT
TORSDOF 0
ENDMDL
