MODEL 1
REMARK minimizedAffinity -2.25732923
REMARK minimizedRMSD -1
REMARK  0 active torsions:
REMARK  status: ('A' for Active; 'I' for Inactive)
ROOT
ATOM      1  N1  IND d   1       0.087  -1.007  -0.043  0.00  0.00    -0.196 N 
ATOM      2  C2  IND d   1      -0.927  -1.212   0.850  0.00  0.00     0.054 A 
ATOM      3  C3  IND d   1      -1.486  -0.033   1.204  0.00  0.00    -0.031 A 
ATOM      4  C4  IND d   1      -0.962   2.344   0.366  0.00  0.00     0.051 A 
ATOM      5  C5  IND d   1      -0.091   3.039  -0.426  0.00  0.00    -0.031 A 
ATOM      6  C6  IND d   1       0.902   2.408  -1.147  0.00  0.00     0.015 A 
ATOM      7  C7  IND d   1       1.054   1.051  -1.112  0.00  0.00    -0.016 A 
ATOM      8  C8  IND d   1       0.177   0.342  -0.304  0.00  0.00    -0.047 A 
ATOM      9  C9  IND d   1      -0.806   0.981   0.464  0.00  0.00    -0.096 A 
ATOM     10  HN1 IND d   1       0.586  -1.619  -0.384  0.00  0.00     0.298 HD
ENDROOT
TORSDOF 0
ENDMDL
