MODEL 1
REMARK minimizedAffinity -5.36905384
REMARK minimizedRMSD -1
REMARK  0 active torsions:
REMARK  status: ('A' for Active; 'I' for Inactive)
ROOT
ATOM      1  N1  IND d   1       1.386  -0.762   1.006  0.00  0.00    -0.196 N 
ATOM      2  C2  IND d   1       0.026  -0.882   1.067  0.00  0.00     0.054 A 
ATOM      3  C3  IND d   1      -0.562   0.317   0.853  0.00  0.00    -0.031 A 
ATOM      4  C4  IND d   1       0.511   2.586   0.281  0.00  0.00     0.051 A 
ATOM      5  C5  IND d   1       1.724   3.202   0.152  0.00  0.00    -0.031 A 
ATOM      6  C6  IND d   1       2.911   2.513   0.300  0.00  0.00     0.015 A 
ATOM      7  C7  IND d   1       2.928   1.175   0.575  0.00  0.00    -0.016 A 
ATOM      8  C8  IND d   1       1.698   0.548   0.714  0.00  0.00    -0.047 A 
ATOM      9  C9  IND d   1       0.491   1.250   0.606  0.00  0.00    -0.096 A 
ATOM     10  HN1 IND d   1       1.952  -1.397   1.130  0.00  0.00     0.298 HD
ENDROOT
TORSDOF 0
ENDMDL
