MODEL 1
REMARK minimizedAffinity -4.40804052
REMARK minimizedRMSD -1
REMARK  0 active torsions:
REMARK  status: ('A' for Active; 'I' for Inactive)
ROOT
ATOM      1  N1  IND d   1       0.916  -0.679   0.363  0.00  0.00    -0.196 N 
ATOM      2  C2  IND d   1      -0.232  -1.090   0.981  0.00  0.00     0.054 A 
ATOM      3  C3  IND d   1      -1.084  -0.051   1.131  0.00  0.00    -0.031 A 
ATOM      4  C4  IND d   1      -0.842   2.388   0.346  0.00  0.00     0.051 A 
ATOM      5  C5  IND d   1       0.047   3.251  -0.233  0.00  0.00    -0.031 A 
ATOM      6  C6  IND d   1       1.295   2.838  -0.653  0.00  0.00     0.015 A 
ATOM      7  C7  IND d   1       1.698   1.540  -0.521  0.00  0.00    -0.016 A 
ATOM      8  C8  IND d   1       0.801   0.663   0.073  0.00  0.00    -0.047 A 
ATOM      9  C9  IND d   1      -0.450   1.085   0.540  0.00  0.00    -0.096 A 
ATOM     10  HN1 IND d   1       1.595  -1.175   0.185  0.00  0.00     0.298 HD
ENDROOT
TORSDOF 0
ENDMDL
