MODEL 1
REMARK minimizedAffinity -1.58988392
REMARK minimizedRMSD -1
REMARK  0 active torsions:
REMARK  status: ('A' for Active; 'I' for Inactive)
ROOT
ATOM      1  N1  IND d   1      -0.267  -1.018   0.852  0.00  0.00    -0.196 N 
ATOM      2  C2  IND d   1       0.783  -1.245   0.007  0.00  0.00     0.054 A 
ATOM      3  C3  IND d   1       1.181  -0.088  -0.569  0.00  0.00    -0.031 A 
ATOM      4  C4  IND d   1       0.320   2.308  -0.192  0.00  0.00     0.051 A 
ATOM      5  C5  IND d   1      -0.652   3.013   0.461  0.00  0.00    -0.031 A 
ATOM      6  C6  IND d   1      -1.562   2.398   1.296  0.00  0.00     0.015 A 
ATOM      7  C7  IND d   1      -1.526   1.051   1.520  0.00  0.00    -0.016 A 
ATOM      8  C8  IND d   1      -0.545   0.331   0.854  0.00  0.00    -0.047 A 
ATOM      9  C9  IND d   1       0.354   0.944  -0.029  0.00  0.00    -0.096 A 
ATOM     10  HN1 IND d   1      -0.683  -1.617   1.307  0.00  0.00     0.298 HD
ENDROOT
TORSDOF 0
ENDMDL
