MODEL 1
REMARK minimizedAffinity 0.261494815
REMARK minimizedRMSD -1
REMARK  0 active torsions:
REMARK  status: ('A' for Active; 'I' for Inactive)
ROOT
ATOM      1  N1  IND d   1       2.455   1.655   1.291  0.00  0.00    -0.196 N 
ATOM      2  C2  IND d   1       3.091   0.498   0.938  0.00  0.00     0.054 A 
ATOM      3  C3  IND d   1       2.195  -0.421   0.514  0.00  0.00    -0.031 A 
ATOM      4  C4  IND d   1      -0.354  -0.205   0.219  0.00  0.00     0.051 A 
ATOM      5  C5  IND d   1      -1.396   0.650   0.444  0.00  0.00    -0.031 A 
ATOM      6  C6  IND d   1      -1.203   1.911   0.972  0.00  0.00     0.015 A 
ATOM      7  C7  IND d   1       0.045   2.369   1.284  0.00  0.00    -0.016 A 
ATOM      8  C8  IND d   1       1.105   1.501   1.063  0.00  0.00    -0.047 A 
ATOM      9  C9  IND d   1       0.911   0.205   0.568  0.00  0.00    -0.096 A 
ATOM     10  HN1 IND d   1       2.834   2.361   1.603  0.00  0.00     0.298 HD
ENDROOT
TORSDOF 0
ENDMDL
