MODEL 1
REMARK minimizedAffinity -3.70998669
REMARK minimizedRMSD -1
REMARK  0 active torsions:
REMARK  status: ('A' for Active; 'I' for Inactive)
ROOT
ATOM      1  N1  IND d   1      -0.403  -0.380   1.477  0.00  0.00    -0.196 N 
ATOM      2  C2  IND d   1       0.159  -1.325   0.666  0.00  0.00     0.054 A 
ATOM      3  C3  IND d   1       0.498  -0.782  -0.525  0.00  0.00    -0.031 A 
ATOM      4  C4  IND d   1       0.313   1.659  -1.320  0.00  0.00     0.051 A 
ATOM      5  C5  IND d   1      -0.170   2.881  -0.944  0.00  0.00    -0.031 A 
ATOM      6  C6  IND d   1      -0.765   3.083   0.284  0.00  0.00     0.015 A 
ATOM      7  C7  IND d   1      -0.890   2.069   1.191  0.00  0.00    -0.016 A 
ATOM      8  C8  IND d   1      -0.407   0.825   0.809  0.00  0.00    -0.047 A 
ATOM      9  C9  IND d   1       0.160   0.604  -0.453  0.00  0.00    -0.096 A 
ATOM     10  HN1 IND d   1      -0.705  -0.515   2.271  0.00  0.00     0.298 HD
ENDROOT
TORSDOF 0
ENDMDL
