MODEL 1
REMARK minimizedAffinity -3.33850169
REMARK minimizedRMSD -1
REMARK  0 active torsions:
REMARK  status: ('A' for Active; 'I' for Inactive)
ROOT
ATOM      1  N1  IND d   1      -0.088  -0.944  -1.202  0.00  0.00    -0.196 N 
ATOM      2  C2  IND d   1      -0.217  -1.603  -0.012  0.00  0.00     0.054 A 
ATOM      3  C3  IND d   1      -0.211  -0.724   1.016  0.00  0.00    -0.031 A 
ATOM      4  C4  IND d   1      -0.103   1.847   0.967  0.00  0.00     0.051 A 
ATOM      5  C5  IND d   1       0.058   2.903   0.114  0.00  0.00    -0.031 A 
ATOM      6  C6  IND d   1       0.178   2.727  -1.249  0.00  0.00     0.015 A 
ATOM      7  C7  IND d   1       0.130   1.484  -1.814  0.00  0.00    -0.016 A 
ATOM      8  C8  IND d   1      -0.026   0.409  -0.950  0.00  0.00    -0.047 A 
ATOM      9  C9  IND d   1      -0.106   0.578   0.438  0.00  0.00    -0.096 A 
ATOM     10  HN1 IND d   1      -0.053  -1.312  -1.978  0.00  0.00     0.298 HD
ENDROOT
TORSDOF 0
ENDMDL
