MODEL 1
REMARK minimizedAffinity -4.05182028
REMARK minimizedRMSD -1
REMARK  0 active torsions:
REMARK  status: ('A' for Active; 'I' for Inactive)
ROOT
ATOM      1  N1  IND d   1       1.702  -1.078   0.986  0.00  0.00    -0.196 N 
ATOM      2  C2  IND d   1       2.977  -0.675   0.702  0.00  0.00     0.054 A 
ATOM      3  C3  IND d   1       2.972   0.579   0.197  0.00  0.00    -0.031 A 
ATOM      4  C4  IND d   1       0.998   2.193  -0.154  0.00  0.00     0.051 A 
ATOM      5  C5  IND d   1      -0.365   2.262  -0.075  0.00  0.00    -0.031 A 
ATOM      6  C6  IND d   1      -1.123   1.200   0.374  0.00  0.00     0.015 A 
ATOM      7  C7  IND d   1      -0.544   0.028   0.772  0.00  0.00    -0.016 A 
ATOM      8  C8  IND d   1       0.839  -0.047   0.687  0.00  0.00    -0.047 A 
ATOM      9  C9  IND d   1       1.611   1.012   0.192  0.00  0.00    -0.096 A 
ATOM     10  HN1 IND d   1       1.477  -1.847   1.299  0.00  0.00     0.298 HD
ENDROOT
TORSDOF 0
ENDMDL
