MODEL 1
REMARK minimizedAffinity -5.09146976
REMARK minimizedRMSD -1
REMARK  0 active torsions:
REMARK  status: ('A' for Active; 'I' for Inactive)
ROOT
ATOM      1  N1  IND d   1       1.134   3.008  -0.200  0.00  0.00    -0.196 N 
ATOM      2  C2  IND d   1       0.006   3.735   0.062  0.00  0.00     0.054 A 
ATOM      3  C3  IND d   1      -1.012   2.916   0.409  0.00  0.00    -0.031 A 
ATOM      4  C4  IND d   1      -1.023   0.360   0.711  0.00  0.00     0.051 A 
ATOM      5  C5  IND d   1      -0.238  -0.748   0.551  0.00  0.00    -0.031 A 
ATOM      6  C6  IND d   1       1.072  -0.657   0.126  0.00  0.00     0.015 A 
ATOM      7  C7  IND d   1       1.651   0.550  -0.144  0.00  0.00    -0.016 A 
ATOM      8  C8  IND d   1       0.855   1.676   0.011  0.00  0.00    -0.047 A 
ATOM      9  C9  IND d   1      -0.488   1.587   0.400  0.00  0.00    -0.096 A 
ATOM     10  HN1 IND d   1       1.890   3.329  -0.453  0.00  0.00     0.298 HD
ENDROOT
TORSDOF 0
ENDMDL
