MODEL 1
REMARK minimizedAffinity -0.670276046
REMARK minimizedRMSD -1
REMARK  0 active torsions:
REMARK  status: ('A' for Active; 'I' for Inactive)
ROOT
ATOM      1  N1  IND d   1       0.726   2.502   0.262  0.00  0.00    -0.196 N 
ATOM      2  C2  IND d   1      -0.304   3.185   0.847  0.00  0.00     0.054 A 
ATOM      3  C3  IND d   1      -1.271   2.327   1.244  0.00  0.00    -0.031 A 
ATOM      4  C4  IND d   1      -1.326  -0.244   1.126  0.00  0.00     0.051 A 
ATOM      5  C5  IND d   1      -0.628  -1.315   0.643  0.00  0.00    -0.031 A 
ATOM      6  C6  IND d   1       0.582  -1.166  -0.002  0.00  0.00     0.015 A 
ATOM      7  C7  IND d   1       1.148   0.065  -0.179  0.00  0.00    -0.016 A 
ATOM      8  C8  IND d   1       0.439   1.155   0.304  0.00  0.00    -0.047 A 
ATOM      9  C9  IND d   1      -0.810   1.014   0.922  0.00  0.00    -0.096 A 
ATOM     10  HN1 IND d   1       1.434   2.855  -0.075  0.00  0.00     0.298 HD
ENDROOT
TORSDOF 0
ENDMDL
