MODEL 1
REMARK minimizedAffinity -0.965929687
REMARK minimizedRMSD -1
REMARK  0 active torsions:
REMARK  status: ('A' for Active; 'I' for Inactive)
ROOT
ATOM      1  N1  IND d   1       1.872   1.813   1.178  0.00  0.00    -0.196 N 
ATOM      2  C2  IND d   1       2.622   0.688   0.977  0.00  0.00     0.054 A 
ATOM      3  C3  IND d   1       1.832  -0.342   0.600  0.00  0.00    -0.031 A 
ATOM      4  C4  IND d   1      -0.703  -0.382   0.153  0.00  0.00     0.051 A 
ATOM      5  C5  IND d   1      -1.824   0.396   0.237  0.00  0.00    -0.031 A 
ATOM      6  C6  IND d   1      -1.769   1.713   0.645  0.00  0.00     0.015 A 
ATOM      7  C7  IND d   1      -0.583   2.307   0.974  0.00  0.00    -0.016 A 
ATOM      8  C8  IND d   1       0.556   1.519   0.897  0.00  0.00    -0.047 A 
ATOM      9  C9  IND d   1       0.501   0.170   0.524  0.00  0.00    -0.096 A 
ATOM     10  HN1 IND d   1       2.172   2.576   1.438  0.00  0.00     0.298 HD
ENDROOT
TORSDOF 0
ENDMDL
