MODEL 1
REMARK minimizedAffinity -4.9430418
REMARK minimizedRMSD -1
REMARK  0 active torsions:
REMARK  status: ('A' for Active; 'I' for Inactive)
ROOT
ATOM      1  N1  IND d   1       0.883  -0.173  -1.433  0.00  0.00    -0.196 N 
ATOM      2  C2  IND d   1       0.335  -1.326  -0.945  0.00  0.00     0.054 A 
ATOM      3  C3  IND d   1      -0.488  -1.053   0.093  0.00  0.00    -0.031 A 
ATOM      4  C4  IND d   1      -1.161   1.223   1.091  0.00  0.00     0.051 A 
ATOM      5  C5  IND d   1      -0.892   2.560   1.003  0.00  0.00    -0.031 A 
ATOM      6  C6  IND d   1      -0.002   3.065   0.077  0.00  0.00     0.015 A 
ATOM      7  C7  IND d   1       0.647   2.249  -0.806  0.00  0.00    -0.016 A 
ATOM      8  C8  IND d   1       0.382   0.890  -0.714  0.00  0.00    -0.047 A 
ATOM      9  C9  IND d   1      -0.489   0.367   0.251  0.00  0.00    -0.096 A 
ATOM     10  HN1 IND d   1       1.446  -0.121  -2.081  0.00  0.00     0.298 HD
ENDROOT
TORSDOF 0
ENDMDL
