MODEL 1
REMARK minimizedAffinity -2.24388027
REMARK minimizedRMSD -1
REMARK  0 active torsions:
REMARK  status: ('A' for Active; 'I' for Inactive)
ROOT
ATOM      1  N1  IND d   1      -0.811  -0.809   1.201  0.00  0.00    -0.196 N 
ATOM      2  C2  IND d   1      -0.403  -1.852   0.417  0.00  0.00     0.054 A 
ATOM      3  C3  IND d   1       0.348  -1.399  -0.613  0.00  0.00    -0.031 A 
ATOM      4  C4  IND d   1       1.117   0.999  -1.146  0.00  0.00     0.051 A 
ATOM      5  C5  IND d   1       0.967   2.294  -0.738  0.00  0.00    -0.031 A 
ATOM      6  C6  IND d   1       0.203   2.628   0.362  0.00  0.00     0.015 A 
ATOM      7  C7  IND d   1      -0.433   1.673   1.104  0.00  0.00    -0.016 A 
ATOM      8  C8  IND d   1      -0.288   0.357   0.688  0.00  0.00    -0.047 A 
ATOM      9  C9  IND d   1       0.451   0.016  -0.452  0.00  0.00    -0.096 A 
ATOM     10  HN1 IND d   1      -1.311  -0.872   1.898  0.00  0.00     0.298 HD
ENDROOT
TORSDOF 0
ENDMDL
