MODEL 1
REMARK minimizedAffinity -5.01826477
REMARK minimizedRMSD -1
REMARK  0 active torsions:
REMARK  status: ('A' for Active; 'I' for Inactive)
ROOT
ATOM      1  N1  IND d   1       1.312  -0.698  -1.294  0.00  0.00    -0.196 N 
ATOM      2  C2  IND d   1       0.427  -1.735  -1.200  0.00  0.00     0.054 A 
ATOM      3  C3  IND d   1      -0.681  -1.349  -0.529  0.00  0.00    -0.031 A 
ATOM      4  C4  IND d   1      -1.298   0.965   0.415  0.00  0.00     0.051 A 
ATOM      5  C5  IND d   1      -0.793   2.221   0.604  0.00  0.00    -0.031 A 
ATOM      6  C6  IND d   1       0.464   2.576   0.160  0.00  0.00     0.015 A 
ATOM      7  C7  IND d   1       1.262   1.688  -0.504  0.00  0.00    -0.016 A 
ATOM      8  C8  IND d   1       0.755   0.410  -0.693  0.00  0.00    -0.047 A 
ATOM      9  C9  IND d   1      -0.503   0.031  -0.206  0.00  0.00    -0.096 A 
ATOM     10  HN1 IND d   1       2.087  -0.731  -1.666  0.00  0.00     0.298 HD
ENDROOT
TORSDOF 0
ENDMDL
