MODEL 1
REMARK minimizedAffinity -2.41800451
REMARK minimizedRMSD -1
REMARK  0 active torsions:
REMARK  status: ('A' for Active; 'I' for Inactive)
ROOT
ATOM      1  N1  IND d   1       0.462   1.263   1.114  0.00  0.00    -0.196 N 
ATOM      2  C2  IND d   1      -0.635   1.469   0.325  0.00  0.00     0.054 A 
ATOM      3  C3  IND d   1      -0.752   0.477  -0.586  0.00  0.00    -0.031 A 
ATOM      4  C4  IND d   1       0.685  -1.636  -0.896  0.00  0.00     0.051 A 
ATOM      5  C5  IND d   1       1.819  -2.244  -0.437  0.00  0.00    -0.031 A 
ATOM      6  C6  IND d   1       2.573  -1.705   0.586  0.00  0.00     0.015 A 
ATOM      7  C7  IND d   1       2.212  -0.538   1.197  0.00  0.00    -0.016 A 
ATOM      8  C8  IND d   1       1.065   0.086   0.728  0.00  0.00    -0.047 A 
ATOM      9  C9  IND d   1       0.319  -0.434  -0.337  0.00  0.00    -0.096 A 
ATOM     10  HN1 IND d   1       0.730   1.782   1.746  0.00  0.00     0.298 HD
ENDROOT
TORSDOF 0
ENDMDL
