MODEL 1
REMARK minimizedAffinity -5.62109137
REMARK minimizedRMSD -1
REMARK  0 active torsions:
REMARK  status: ('A' for Active; 'I' for Inactive)
ROOT
ATOM      1  N1  IND d   1      -0.545   1.200  -0.092  0.00  0.00    -0.196 N 
ATOM      2  C2  IND d   1      -1.328   0.102  -0.319  0.00  0.00     0.054 A 
ATOM      3  C3  IND d   1      -0.588  -1.027  -0.237  0.00  0.00    -0.031 A 
ATOM      4  C4  IND d   1       1.900  -1.313   0.357  0.00  0.00     0.051 A 
ATOM      5  C5  IND d   1       3.037  -0.597   0.610  0.00  0.00    -0.031 A 
ATOM      6  C6  IND d   1       3.037   0.783   0.645  0.00  0.00     0.015 A 
ATOM      7  C7  IND d   1       1.892   1.500   0.439  0.00  0.00    -0.016 A 
ATOM      8  C8  IND d   1       0.738   0.777   0.175  0.00  0.00    -0.047 A 
ATOM      9  C9  IND d   1       0.741  -0.622   0.096  0.00  0.00    -0.096 A 
ATOM     10  HN1 IND d   1      -0.810   2.018  -0.113  0.00  0.00     0.298 HD
ENDROOT
TORSDOF 0
ENDMDL
