MODEL 1
REMARK minimizedAffinity -3.31740093
REMARK minimizedRMSD -1
REMARK  0 active torsions:
REMARK  status: ('A' for Active; 'I' for Inactive)
ROOT
ATOM      1  N1  IND d   1      -0.640  -0.532  -1.303  0.00  0.00    -0.196 N 
ATOM      2  C2  IND d   1      -1.232   0.640  -0.924  0.00  0.00     0.054 A 
ATOM      3  C3  IND d   1      -0.585   1.172   0.137  0.00  0.00    -0.031 A 
ATOM      4  C4  IND d   1       1.531   0.343   1.346  0.00  0.00     0.051 A 
ATOM      5  C5  IND d   1       2.411  -0.703   1.383  0.00  0.00    -0.031 A 
ATOM      6  C6  IND d   1       2.318  -1.765   0.507  0.00  0.00     0.015 A 
ATOM      7  C7  IND d   1       1.345  -1.816  -0.450  0.00  0.00    -0.016 A 
ATOM      8  C8  IND d   1       0.446  -0.759  -0.486  0.00  0.00    -0.047 A 
ATOM      9  C9  IND d   1       0.509   0.300   0.428  0.00  0.00    -0.096 A 
ATOM     10  HN1 IND d   1      -0.901  -1.042  -1.945  0.00  0.00     0.298 HD
ENDROOT
TORSDOF 0
ENDMDL
