MODEL 1
REMARK minimizedAffinity -6.26609468
REMARK minimizedRMSD -1
REMARK  0 active torsions:
REMARK  status: ('A' for Active; 'I' for Inactive)
ROOT
ATOM      1  N1  IND d   1      -0.018   1.090  -0.359  0.00  0.00    -0.196 N 
ATOM      2  C2  IND d   1      -0.906   0.068  -0.545  0.00  0.00     0.054 A 
ATOM      3  C3  IND d   1      -0.315  -1.121  -0.289  0.00  0.00    -0.031 A 
ATOM      4  C4  IND d   1       2.070  -1.615   0.547  0.00  0.00     0.051 A 
ATOM      5  C5  IND d   1       3.261  -1.006   0.827  0.00  0.00    -0.031 A 
ATOM      6  C6  IND d   1       3.422   0.361   0.727  0.00  0.00     0.015 A 
ATOM      7  C7  IND d   1       2.390   1.175   0.352  0.00  0.00    -0.016 A 
ATOM      8  C8  IND d   1       1.181   0.559   0.060  0.00  0.00    -0.047 A 
ATOM      9  C9  IND d   1       1.024  -0.832   0.119  0.00  0.00    -0.096 A 
ATOM     10  HN1 IND d   1      -0.182   1.925  -0.483  0.00  0.00     0.298 HD
ENDROOT
TORSDOF 0
ENDMDL
