MODEL 1
REMARK minimizedAffinity -2.53988576
REMARK minimizedRMSD -1
REMARK  0 active torsions:
REMARK  status: ('A' for Active; 'I' for Inactive)
ROOT
ATOM      1  N1  IND d   1      -1.402  -0.891  -0.402  0.00  0.00    -0.196 N 
ATOM      2  C2  IND d   1      -1.815   0.379  -0.108  0.00  0.00     0.054 A 
ATOM      3  C3  IND d   1      -0.777   1.120   0.340  0.00  0.00    -0.031 A 
ATOM      4  C4  IND d   1       1.706   0.482   0.576  0.00  0.00     0.051 A 
ATOM      5  C5  IND d   1       2.561  -0.578   0.465  0.00  0.00    -0.031 A 
ATOM      6  C6  IND d   1       2.131  -1.821   0.048  0.00  0.00     0.015 A 
ATOM      7  C7  IND d   1       0.826  -2.048  -0.285  0.00  0.00    -0.016 A 
ATOM      8  C8  IND d   1      -0.047  -0.976  -0.167  0.00  0.00    -0.047 A 
ATOM      9  C9  IND d   1       0.375   0.277   0.296  0.00  0.00    -0.096 A 
ATOM     10  HN1 IND d   1      -1.904  -1.529  -0.685  0.00  0.00     0.298 HD
ENDROOT
TORSDOF 0
ENDMDL
