MODEL 1
REMARK minimizedAffinity -5.35188723
REMARK minimizedRMSD -1
REMARK  0 active torsions:
REMARK  status: ('A' for Active; 'I' for Inactive)
ROOT
ATOM      1  N1  IND d   1      -0.301   0.728  -0.146  0.00  0.00    -0.196 N 
ATOM      2  C2  IND d   1      -0.994  -0.289  -0.741  0.00  0.00     0.054 A 
ATOM      3  C3  IND d   1      -0.181  -1.347  -0.962  0.00  0.00    -0.031 A 
ATOM      4  C4  IND d   1       2.295  -1.665  -0.335  0.00  0.00     0.051 A 
ATOM      5  C5  IND d   1       3.367  -0.999   0.190  0.00  0.00    -0.031 A 
ATOM      6  C6  IND d   1       3.269   0.301   0.642  0.00  0.00     0.015 A 
ATOM      7  C7  IND d   1       2.087   0.983   0.595  0.00  0.00    -0.016 A 
ATOM      8  C8  IND d   1       0.997   0.314   0.056  0.00  0.00    -0.047 A 
ATOM      9  C9  IND d   1       1.101  -0.991  -0.443  0.00  0.00    -0.096 A 
ATOM     10  HN1 IND d   1      -0.622   1.497   0.066  0.00  0.00     0.298 HD
ENDROOT
TORSDOF 0
ENDMDL
