MODEL 1
REMARK minimizedAffinity -6.10737753
REMARK minimizedRMSD -1
REMARK  0 active torsions:
REMARK  status: ('A' for Active; 'I' for Inactive)
ROOT
ATOM      1  N1  IND d   1       0.366   1.326  -0.326  0.00  0.00    -0.196 N 
ATOM      2  C2  IND d   1      -0.645   0.467  -0.658  0.00  0.00     0.054 A 
ATOM      3  C3  IND d   1      -0.206  -0.812  -0.621  0.00  0.00    -0.031 A 
ATOM      4  C4  IND d   1       2.101  -1.730   0.057  0.00  0.00     0.051 A 
ATOM      5  C5  IND d   1       3.361  -1.329   0.404  0.00  0.00    -0.031 A 
ATOM      6  C6  IND d   1       3.692   0.005   0.531  0.00  0.00     0.015 A 
ATOM      7  C7  IND d   1       2.769   0.991   0.325  0.00  0.00    -0.016 A 
ATOM      8  C8  IND d   1       1.491   0.587  -0.034  0.00  0.00    -0.047 A 
ATOM      9  C9  IND d   1       1.160  -0.763  -0.206  0.00  0.00    -0.096 A 
ATOM     10  HN1 IND d   1       0.308   2.183  -0.304  0.00  0.00     0.298 HD
ENDROOT
TORSDOF 0
ENDMDL
