MODEL 1
REMARK minimizedAffinity -1.26816535
REMARK minimizedRMSD -1
REMARK  0 active torsions:
REMARK  status: ('A' for Active; 'I' for Inactive)
ROOT
ATOM      1  N1  IND d   1      -0.529   1.851  -0.755  0.00  0.00    -0.196 N 
ATOM      2  C2  IND d   1      -1.453   0.854  -0.904  0.00  0.00     0.054 A 
ATOM      3  C3  IND d   1      -1.028  -0.275  -0.292  0.00  0.00    -0.031 A 
ATOM      4  C4  IND d   1       1.100  -0.680   1.098  0.00  0.00     0.051 A 
ATOM      5  C5  IND d   1       2.265  -0.079   1.484  0.00  0.00    -0.031 A 
ATOM      6  C6  IND d   1       2.563   1.224   1.139  0.00  0.00     0.015 A 
ATOM      7  C7  IND d   1       1.698   1.980   0.401  0.00  0.00    -0.016 A 
ATOM      8  C8  IND d   1       0.517   1.371   0.001  0.00  0.00    -0.047 A 
ATOM      9  C9  IND d   1       0.229   0.036   0.312  0.00  0.00    -0.096 A 
ATOM     10  HN1 IND d   1      -0.592   2.645  -1.080  0.00  0.00     0.298 HD
ENDROOT
TORSDOF 0
ENDMDL
