MODEL 1
REMARK minimizedAffinity -3.17401266
REMARK minimizedRMSD -1
REMARK  0 active torsions:
REMARK  status: ('A' for Active; 'I' for Inactive)
ROOT
ATOM      1  N1  IND d   1      -0.396   0.878   0.394  0.00  0.00    -0.196 N 
ATOM      2  C2  IND d   1      -1.331   0.341  -0.445  0.00  0.00     0.054 A 
ATOM      3  C3  IND d   1      -0.880  -0.820  -0.971  0.00  0.00    -0.031 A 
ATOM      4  C4  IND d   1       1.319  -2.077  -0.514  0.00  0.00     0.051 A 
ATOM      5  C5  IND d   1       2.507  -1.962   0.152  0.00  0.00    -0.031 A 
ATOM      6  C6  IND d   1       2.793  -0.873   0.951  0.00  0.00     0.015 A 
ATOM      7  C7  IND d   1       1.893   0.140   1.123  0.00  0.00    -0.016 A 
ATOM      8  C8  IND d   1       0.688   0.029   0.443  0.00  0.00    -0.047 A 
ATOM      9  C9  IND d   1       0.410  -1.052  -0.402  0.00  0.00    -0.096 A 
ATOM     10  HN1 IND d   1      -0.471   1.622   0.820  0.00  0.00     0.298 HD
ENDROOT
TORSDOF 0
ENDMDL
