MODEL 1
REMARK minimizedAffinity 0.601942301
REMARK minimizedRMSD -1
REMARK  1 active torsions:
REMARK  status: ('A' for Active; 'I' for Inactive)
REMARK    1  A    between atoms: C1_2  and  C2_3 
ROOT
ATOM      1  C2  UNL d   1       4.132   5.933   2.655  0.00  0.00    -0.081 A 
ATOM      2  C3  UNL d   1       2.842   5.987   2.112  0.00  0.00     0.006 A 
ATOM      3  C4  UNL d   1       1.722   5.996   2.947  0.00  0.00     0.002 A 
ATOM      4  C5  UNL d   1       1.873   5.960   4.338  0.00  0.00    -0.080 A 
ATOM      5  C6  UNL d   1       0.680   6.000   5.246  0.00  0.00     0.076 C 
ATOM      6  C7  UNL d   1       3.161   5.888   4.880  0.00  0.00     0.002 A 
ATOM      7  C8  UNL d   1       4.281   5.878   4.045  0.00  0.00     0.006 A 
ENDROOT
BRANCH   1   8
ATOM      8  C1  UNL d   1       5.343   5.989   1.760  0.00  0.00     0.054 C 
ATOM      9  C   UNL d   1       5.759   4.597   1.305  0.00  0.00     0.018 C 
ENDBRANCH   1   8
TORSDOF 1
ENDMDL
