MODEL 1
REMARK minimizedAffinity 0.071051389
REMARK minimizedRMSD -1
REMARK  1 active torsions:
REMARK  status: ('A' for Active; 'I' for Inactive)
REMARK    1  A    between atoms: C1_2  and  C2_3 
ROOT
ATOM      1  C2  UNL d   1       2.040  -0.218   0.776  0.00  0.00    -0.081 A 
ATOM      2  C3  UNL d   1       2.368  -0.508   2.106  0.00  0.00     0.006 A 
ATOM      3  C4  UNL d   1       1.423  -1.079   2.961  0.00  0.00     0.002 A 
ATOM      4  C5  UNL d   1       0.137  -1.379   2.498  0.00  0.00    -0.080 A 
ATOM      5  C6  UNL d   1      -0.878  -2.020   3.397  0.00  0.00     0.076 C 
ATOM      6  C7  UNL d   1      -0.197  -1.074   1.174  0.00  0.00     0.002 A 
ATOM      7  C8  UNL d   1       0.748  -0.501   0.319  0.00  0.00     0.006 A 
ENDROOT
BRANCH   1   8
ATOM      8  C1  UNL d   1       3.077   0.338  -0.166  0.00  0.00     0.054 C 
ATOM      9  C   UNL d   1       3.139  -0.464  -1.458  0.00  0.00     0.018 C 
ENDBRANCH   1   8
TORSDOF 1
ENDMDL
