MODEL 1
REMARK minimizedAffinity -1.37173748
REMARK minimizedRMSD -1
REMARK  1 active torsions:
REMARK  status: ('A' for Active; 'I' for Inactive)
REMARK    1  A    between atoms: C1_2  and  C2_3 
ROOT
ATOM      1  C2  UNL d   1       1.226  -0.490   1.024  0.00  0.00    -0.081 A 
ATOM      2  C3  UNL d   1       0.647  -1.321   1.991  0.00  0.00     0.006 A 
ATOM      3  C4  UNL d   1      -0.723  -1.254   2.253  0.00  0.00     0.002 A 
ATOM      4  C5  UNL d   1      -1.538  -0.362   1.548  0.00  0.00    -0.080 A 
ATOM      5  C6  UNL d   1      -3.016  -0.301   1.799  0.00  0.00     0.076 C 
ATOM      6  C7  UNL d   1      -0.957   0.481   0.595  0.00  0.00     0.002 A 
ATOM      7  C8  UNL d   1       0.414   0.414   0.333  0.00  0.00     0.006 A 
ENDROOT
BRANCH   1   8
ATOM      8  C1  UNL d   1       2.692  -0.606   0.694  0.00  0.00     0.054 C 
ATOM      9  C   UNL d   1       3.035   0.160  -0.576  0.00  0.00     0.018 C 
ENDBRANCH   1   8
TORSDOF 1
ENDMDL
