MODEL 1
REMARK minimizedAffinity -4.19581032
REMARK minimizedRMSD -1
REMARK  1 active torsions:
REMARK  status: ('A' for Active; 'I' for Inactive)
REMARK    1  A    between atoms: C1_2  and  C2_3 
ROOT
ATOM      1  C2  UNL d   1      -0.174   0.473  -0.447  0.00  0.00    -0.081 A 
ATOM      2  C3  UNL d   1      -0.566   0.523   0.896  0.00  0.00     0.006 A 
ATOM      3  C4  UNL d   1       0.113  -0.225   1.861  0.00  0.00     0.002 A 
ATOM      4  C5  UNL d   1       1.199  -1.029   1.500  0.00  0.00    -0.080 A 
ATOM      5  C6  UNL d   1       1.955  -1.814   2.530  0.00  0.00     0.076 C 
ATOM      6  C7  UNL d   1       1.580  -1.094   0.155  0.00  0.00     0.002 A 
ATOM      7  C8  UNL d   1       0.901  -0.346  -0.810  0.00  0.00     0.006 A 
ENDROOT
BRANCH   1   8
ATOM      8  C1  UNL d   1      -0.863   1.328  -1.479  0.00  0.00     0.054 C 
ATOM      9  C   UNL d   1       0.037   2.462  -1.949  0.00  0.00     0.018 C 
ENDBRANCH   1   8
TORSDOF 1
ENDMDL
