MODEL 1
REMARK minimizedAffinity -4.06399536
REMARK minimizedRMSD -1
REMARK  1 active torsions:
REMARK  status: ('A' for Active; 'I' for Inactive)
REMARK    1  A    between atoms: C1_2  and  C2_3 
ROOT
ATOM      1  C2  UNL d   1      -0.374   0.832  -1.021  0.00  0.00    -0.081 A 
ATOM      2  C3  UNL d   1      -1.345   0.382  -0.118  0.00  0.00     0.006 A 
ATOM      3  C4  UNL d   1      -0.968  -0.245   1.072  0.00  0.00     0.002 A 
ATOM      4  C5  UNL d   1       0.384  -0.426   1.383  0.00  0.00    -0.080 A 
ATOM      5  C6  UNL d   1       0.801  -1.071   2.671  0.00  0.00     0.076 C 
ATOM      6  C7  UNL d   1       1.353   0.008   0.472  0.00  0.00     0.002 A 
ATOM      7  C8  UNL d   1       0.978   0.634  -0.718  0.00  0.00     0.006 A 
ENDROOT
BRANCH   1   8
ATOM      8  C1  UNL d   1      -0.775   1.567  -2.274  0.00  0.00     0.054 C 
ATOM      9  C   UNL d   1       0.307   2.544  -2.713  0.00  0.00     0.018 C 
ENDBRANCH   1   8
TORSDOF 1
ENDMDL
