MODEL 1
REMARK minimizedAffinity -5.04485083
REMARK minimizedRMSD -1
REMARK  1 active torsions:
REMARK  status: ('A' for Active; 'I' for Inactive)
REMARK    1  A    between atoms: C1_2  and  C2_3 
ROOT
ATOM      1  C2  UNL d   1      -0.015  -0.115  -0.370  0.00  0.00    -0.081 A 
ATOM      2  C3  UNL d   1      -0.508  -0.017   0.936  0.00  0.00     0.006 A 
ATOM      3  C4  UNL d   1       0.256  -0.461   2.017  0.00  0.00     0.002 A 
ATOM      4  C5  UNL d   1       1.529  -1.004   1.811  0.00  0.00    -0.080 A 
ATOM      5  C6  UNL d   1       2.373  -1.457   2.965  0.00  0.00     0.076 C 
ATOM      6  C7  UNL d   1       2.015  -1.119   0.504  0.00  0.00     0.002 A 
ATOM      7  C8  UNL d   1       1.251  -0.675  -0.577  0.00  0.00     0.006 A 
ENDROOT
BRANCH   1   8
ATOM      8  C1  UNL d   1      -0.810   0.423  -1.532  0.00  0.00     0.054 C 
ATOM      9  C   UNL d   1      -0.277   1.773  -1.990  0.00  0.00     0.018 C 
ENDBRANCH   1   8
TORSDOF 1
ENDMDL
