MODEL 1
REMARK minimizedAffinity -1.9921267
REMARK minimizedRMSD -1
REMARK  1 active torsions:
REMARK  status: ('A' for Active; 'I' for Inactive)
REMARK    1  A    between atoms: C1_2  and  C2_3 
ROOT
ATOM      1  C2  UNL d   1      -0.203   0.200  -1.378  0.00  0.00    -0.081 A 
ATOM      2  C3  UNL d   1      -1.156   0.305  -0.357  0.00  0.00     0.006 A 
ATOM      3  C4  UNL d   1      -0.940  -0.309   0.878  0.00  0.00     0.002 A 
ATOM      4  C5  UNL d   1       0.234  -1.031   1.116  0.00  0.00    -0.080 A 
ATOM      5  C6  UNL d   1       0.492  -1.671   2.449  0.00  0.00     0.076 C 
ATOM      6  C7  UNL d   1       1.178  -1.151   0.091  0.00  0.00     0.002 A 
ATOM      7  C8  UNL d   1       0.963  -0.537  -1.145  0.00  0.00     0.006 A 
ENDROOT
BRANCH   1   8
ATOM      8  C1  UNL d   1      -0.403   0.916  -2.690  0.00  0.00     0.054 C 
ATOM      9  C   UNL d   1      -1.075   2.267  -2.486  0.00  0.00     0.018 C 
ENDBRANCH   1   8
TORSDOF 1
ENDMDL
