MODEL 1
REMARK minimizedAffinity -4.92956495
REMARK minimizedRMSD -1
REMARK  1 active torsions:
REMARK  status: ('A' for Active; 'I' for Inactive)
REMARK    1  A    between atoms: C1_2  and  C2_3 
ROOT
ATOM      1  C2  UNL d   1      -4.239   2.224  -3.368  0.00  0.00    -0.081 A 
ATOM      2  C3  UNL d   1      -3.824   3.554  -3.233  0.00  0.00     0.006 A 
ATOM      3  C4  UNL d   1      -2.472   3.859  -3.055  0.00  0.00     0.002 A 
ATOM      4  C5  UNL d   1      -1.513   2.841  -3.018  0.00  0.00    -0.080 A 
ATOM      5  C6  UNL d   1      -0.056   3.157  -2.858  0.00  0.00     0.076 C 
ATOM      6  C7  UNL d   1      -1.930   1.511  -3.136  0.00  0.00     0.002 A 
ATOM      7  C8  UNL d   1      -3.281   1.205  -3.313  0.00  0.00     0.006 A 
ENDROOT
BRANCH   1   8
ATOM      8  C1  UNL d   1      -5.688   1.895  -3.625  0.00  0.00     0.054 C 
ATOM      9  C   UNL d   1      -5.983   1.824  -5.116  0.00  0.00     0.018 C 
ENDBRANCH   1   8
TORSDOF 1
ENDMDL
