MODEL 1
REMARK minimizedAffinity 3.0643456
REMARK minimizedRMSD -1
REMARK  1 active torsions:
REMARK  status: ('A' for Active; 'I' for Inactive)
REMARK    1  A    between atoms: C1_2  and  C2_3 
ROOT
ATOM      1  C2  UNL d   1       0.727   0.386   0.153  0.00  0.00    -0.077 A 
ATOM      2  C3  UNL d   1       0.406   0.961   1.391  0.00  0.00     0.002 A 
ATOM      3  C4  UNL d   1       0.663   2.312   1.630  0.00  0.00     0.002 A 
ATOM      4  C5  UNL d   1       1.237   3.101   0.635  0.00  0.00    -0.004 A 
ATOM      5  C6  UNL d   1       1.561   2.538  -0.599  0.00  0.00     0.002 A 
ATOM      6  C7  UNL d   1       1.307   1.187  -0.839  0.00  0.00     0.002 A 
ENDROOT
BRANCH   1   7
ATOM      7  C1  UNL d   1       0.406  -1.060  -0.123  0.00  0.00     0.055 C 
ATOM      8  C   UNL d   1      -0.948  -1.446   0.454  0.00  0.00     0.019 C 
ENDBRANCH   1   7
TORSDOF 1
ENDMDL
