MODEL 1
REMARK minimizedAffinity 13.1978569
REMARK minimizedRMSD -1
REMARK  1 active torsions:
REMARK  status: ('A' for Active; 'I' for Inactive)
REMARK    1  A    between atoms: C1_2  and  C2_3 
ROOT
ATOM      1  C2  UNL d   1       3.683   0.538  -0.130  0.00  0.00    -0.077 A 
ATOM      2  C3  UNL d   1       3.286   1.378  -1.180  0.00  0.00     0.002 A 
ATOM      3  C4  UNL d   1       1.943   1.720  -1.342  0.00  0.00     0.002 A 
ATOM      4  C5  UNL d   1       0.985   1.231  -0.455  0.00  0.00    -0.004 A 
ATOM      5  C6  UNL d   1       1.369   0.393   0.591  0.00  0.00     0.002 A 
ATOM      6  C7  UNL d   1       2.712   0.049   0.754  0.00  0.00     0.002 A 
ENDROOT
BRANCH   1   7
ATOM      7  C1  UNL d   1       5.138   0.207   0.076  0.00  0.00     0.055 C 
ATOM      8  C   UNL d   1       6.000   1.461   0.046  0.00  0.00     0.019 C 
ENDBRANCH   1   7
TORSDOF 1
ENDMDL
