MODEL 1
REMARK minimizedAffinity -1.43965578
REMARK minimizedRMSD -1
REMARK  1 active torsions:
REMARK  status: ('A' for Active; 'I' for Inactive)
REMARK    1  A    between atoms: C1_2  and  C2_3 
ROOT
ATOM      1  C2  UNL d   1      -0.303   0.258   0.534  0.00  0.00    -0.077 A 
ATOM      2  C3  UNL d   1       0.210   1.313   1.301  0.00  0.00     0.002 A 
ATOM      3  C4  UNL d   1       1.152   2.188   0.757  0.00  0.00     0.002 A 
ATOM      4  C5  UNL d   1       1.586   2.019  -0.557  0.00  0.00    -0.004 A 
ATOM      5  C6  UNL d   1       1.083   0.971  -1.326  0.00  0.00     0.002 A 
ATOM      6  C7  UNL d   1       0.142   0.095  -0.784  0.00  0.00     0.002 A 
ENDROOT
BRANCH   1   7
ATOM      7  C1  UNL d   1      -1.356  -0.658   1.103  0.00  0.00     0.055 C 
ATOM      8  C   UNL d   1      -2.168   0.038   2.185  0.00  0.00     0.019 C 
ENDBRANCH   1   7
TORSDOF 1
ENDMDL
