MODEL 1
REMARK minimizedAffinity 0.740474939
REMARK minimizedRMSD -1
REMARK  1 active torsions:
REMARK  status: ('A' for Active; 'I' for Inactive)
REMARK    1  A    between atoms: C1_2  and  C2_3 
ROOT
ATOM      1  C2  UNL d   1       3.583   5.382  -5.440  0.00  0.00    -0.077 A 
ATOM      2  C3  UNL d   1       4.795   5.810  -6.000  0.00  0.00     0.002 A 
ATOM      3  C4  UNL d   1       5.997   5.207  -5.627  0.00  0.00     0.002 A 
ATOM      4  C5  UNL d   1       5.999   4.170  -4.696  0.00  0.00    -0.004 A 
ATOM      5  C6  UNL d   1       4.799   3.738  -4.132  0.00  0.00     0.002 A 
ATOM      6  C7  UNL d   1       3.596   4.340  -4.504  0.00  0.00     0.002 A 
ENDROOT
BRANCH   1   7
ATOM      7  C1  UNL d   1       2.280   5.997  -5.879  0.00  0.00     0.055 C 
ATOM      8  C   UNL d   1       1.090   5.226  -5.327  0.00  0.00     0.019 C 
ENDBRANCH   1   7
TORSDOF 1
ENDMDL
