MODEL 1
REMARK minimizedAffinity -0.344229609
REMARK minimizedRMSD -1
REMARK  1 active torsions:
REMARK  status: ('A' for Active; 'I' for Inactive)
REMARK    1  A    between atoms: C1_2  and  C2_3 
ROOT
ATOM      1  C2  UNL d   1       0.585   0.534   0.498  0.00  0.00    -0.077 A 
ATOM      2  C3  UNL d   1       0.737   1.709   1.248  0.00  0.00     0.002 A 
ATOM      3  C4  UNL d   1       1.386   2.817   0.702  0.00  0.00     0.002 A 
ATOM      4  C5  UNL d   1       1.884   2.764  -0.598  0.00  0.00    -0.004 A 
ATOM      5  C6  UNL d   1       1.740   1.600  -1.352  0.00  0.00     0.002 A 
ATOM      6  C7  UNL d   1       1.093   0.490  -0.807  0.00  0.00     0.002 A 
ENDROOT
BRANCH   1   7
ATOM      7  C1  UNL d   1      -0.158  -0.646   1.068  0.00  0.00     0.055 C 
ATOM      8  C   UNL d   1      -1.413  -0.205   1.808  0.00  0.00     0.019 C 
ENDBRANCH   1   7
TORSDOF 1
ENDMDL
