MODEL 1
REMARK minimizedAffinity 2.34866428
REMARK minimizedRMSD -1
REMARK  1 active torsions:
REMARK  status: ('A' for Active; 'I' for Inactive)
REMARK    1  A    between atoms: C1_2  and  C2_3 
ROOT
ATOM      1  C2  UNL d   1       0.627   1.205   2.625  0.00  0.00    -0.077 A 
ATOM      2  C3  UNL d   1       1.645   1.797   1.864  0.00  0.00     0.002 A 
ATOM      3  C4  UNL d   1       1.725   1.566   0.490  0.00  0.00     0.002 A 
ATOM      4  C5  UNL d   1       0.788   0.747  -0.137  0.00  0.00    -0.004 A 
ATOM      5  C6  UNL d   1      -0.227   0.151   0.611  0.00  0.00     0.002 A 
ATOM      6  C7  UNL d   1      -0.308   0.380   1.986  0.00  0.00     0.002 A 
ENDROOT
BRANCH   1   7
ATOM      7  C1  UNL d   1       0.509   1.492   4.099  0.00  0.00     0.055 C 
ATOM      8  C   UNL d   1       1.696   0.932   4.868  0.00  0.00     0.019 C 
ENDBRANCH   1   7
TORSDOF 1
ENDMDL
