MODEL 1
REMARK minimizedAffinity -0.797446132
REMARK minimizedRMSD -1
REMARK  1 active torsions:
REMARK  status: ('A' for Active; 'I' for Inactive)
REMARK    1  A    between atoms: C1_2  and  C2_3 
ROOT
ATOM      1  C2  UNL d   1      -1.405   3.025  -0.707  0.00  0.00    -0.076 A 
ATOM      2  C3  UNL d   1      -1.978   3.909   0.224  0.00  0.00     0.004 A 
ATOM      3  C4  UNL d   1      -1.967   3.621   1.588  0.00  0.00    -0.003 A 
ATOM      4  C5  UNL d   1      -1.382   2.445   2.043  0.00  0.00     0.000 A 
ATOM      5  C6  UNL d   1      -0.793   1.565   1.136  0.00  0.00     0.000 A 
ATOM      6  C7  UNL d   1      -0.781   1.848  -0.241  0.00  0.00    -0.073 A 
ATOM      7  C8  UNL d   1      -0.138   0.860  -1.175  0.00  0.00     0.078 C 
ENDROOT
BRANCH   1   8
ATOM      8  C1  UNL d   1      -1.471   3.377  -2.175  0.00  0.00     0.053 C 
ATOM      9  C   UNL d   1      -0.097   3.623  -2.778  0.00  0.00     0.018 C 
ENDBRANCH   1   8
TORSDOF 1
ENDMDL
