MODEL 1
REMARK minimizedAffinity 14.6024818
REMARK minimizedRMSD -1
REMARK  1 active torsions:
REMARK  status: ('A' for Active; 'I' for Inactive)
REMARK    1  A    between atoms: C1_2  and  C2_3 
ROOT
ATOM      1  C2  UNL d   1      -3.265   3.086  -2.162  0.00  0.00    -0.076 A 
ATOM      2  C3  UNL d   1      -3.059   4.285  -2.867  0.00  0.00     0.004 A 
ATOM      3  C4  UNL d   1      -3.977   4.724  -3.819  0.00  0.00    -0.003 A 
ATOM      4  C5  UNL d   1      -5.117   3.971  -4.081  0.00  0.00     0.000 A 
ATOM      5  C6  UNL d   1      -5.346   2.789  -3.379  0.00  0.00     0.000 A 
ATOM      6  C7  UNL d   1      -4.438   2.340  -2.404  0.00  0.00    -0.073 A 
ATOM      7  C8  UNL d   1      -4.733   1.055  -1.680  0.00  0.00     0.078 C 
ENDROOT
BRANCH   1   8
ATOM      8  C1  UNL d   1      -2.221   2.646  -1.160  0.00  0.00     0.053 C 
ATOM      9  C   UNL d   1      -0.968   3.507  -1.209  0.00  0.00     0.018 C 
ENDBRANCH   1   8
TORSDOF 1
ENDMDL
