MODEL 1
REMARK minimizedAffinity 9.31002808
REMARK minimizedRMSD -1
REMARK  1 active torsions:
REMARK  status: ('A' for Active; 'I' for Inactive)
REMARK    1  A    between atoms: C1_2  and  C2_3 
ROOT
ATOM      1  C2  UNL d   1      -1.616   2.346  -0.706  0.00  0.00    -0.076 A 
ATOM      2  C3  UNL d   1      -0.738   1.300  -0.374  0.00  0.00     0.004 A 
ATOM      3  C4  UNL d   1      -0.239   0.443  -1.354  0.00  0.00    -0.003 A 
ATOM      4  C5  UNL d   1      -0.610   0.619  -2.682  0.00  0.00     0.000 A 
ATOM      5  C6  UNL d   1      -1.466   1.663  -3.032  0.00  0.00     0.000 A 
ATOM      6  C7  UNL d   1      -1.965   2.545  -2.059  0.00  0.00    -0.073 A 
ATOM      7  C8  UNL d   1      -2.890   3.650  -2.491  0.00  0.00     0.078 C 
ENDROOT
BRANCH   1   8
ATOM      8  C1  UNL d   1      -2.146   3.226   0.403  0.00  0.00     0.053 C 
ATOM      9  C   UNL d   1      -1.731   2.739   1.783  0.00  0.00     0.018 C 
ENDBRANCH   1   8
TORSDOF 1
ENDMDL
