MODEL 1
REMARK minimizedAffinity 11.8794146
REMARK minimizedRMSD -1
REMARK  1 active torsions:
REMARK  status: ('A' for Active; 'I' for Inactive)
REMARK    1  A    between atoms: C1_2  and  C2_3 
ROOT
ATOM      1  C2  UNL d   1      -0.866   1.137  -1.314  0.00  0.00    -0.076 A 
ATOM      2  C3  UNL d   1      -0.145   1.871  -2.272  0.00  0.00     0.004 A 
ATOM      3  C4  UNL d   1      -0.237   1.564  -3.629  0.00  0.00    -0.003 A 
ATOM      4  C5  UNL d   1      -1.051   0.519  -4.050  0.00  0.00     0.000 A 
ATOM      5  C6  UNL d   1      -1.787  -0.209  -3.115  0.00  0.00     0.000 A 
ATOM      6  C7  UNL d   1      -1.718   0.098  -1.745  0.00  0.00    -0.073 A 
ATOM      7  C8  UNL d   1      -2.528  -0.723  -0.780  0.00  0.00     0.078 C 
ENDROOT
BRANCH   1   8
ATOM      8  C1  UNL d   1      -0.705   1.498   0.145  0.00  0.00     0.053 C 
ATOM      9  C   UNL d   1       0.253   2.660   0.356  0.00  0.00     0.018 C 
ENDBRANCH   1   8
TORSDOF 1
ENDMDL
