MODEL 1
REMARK minimizedAffinity 5.12436533
REMARK minimizedRMSD -1
REMARK  1 active torsions:
REMARK  status: ('A' for Active; 'I' for Inactive)
REMARK    1  A    between atoms: C1_2  and  C2_3 
ROOT
ATOM      1  C2  UNL d   1       0.169   1.094   0.439  0.00  0.00    -0.076 A 
ATOM      2  C3  UNL d   1       0.160   0.143   1.474  0.00  0.00     0.004 A 
ATOM      3  C4  UNL d   1      -0.068   0.523   2.796  0.00  0.00    -0.003 A 
ATOM      4  C5  UNL d   1      -0.291   1.860   3.104  0.00  0.00     0.000 A 
ATOM      5  C6  UNL d   1      -0.303   2.815   2.087  0.00  0.00     0.000 A 
ATOM      6  C7  UNL d   1      -0.091   2.447   0.748  0.00  0.00    -0.073 A 
ATOM      7  C8  UNL d   1      -0.108   3.518  -0.307  0.00  0.00     0.078 C 
ENDROOT
BRANCH   1   8
ATOM      8  C1  UNL d   1       0.449   0.627  -0.971  0.00  0.00     0.053 C 
ATOM      9  C   UNL d   1      -0.613   1.085  -1.958  0.00  0.00     0.018 C 
ENDBRANCH   1   8
TORSDOF 1
ENDMDL
