MODEL 1
REMARK minimizedAffinity 5.72199917
REMARK minimizedRMSD -1
REMARK  1 active torsions:
REMARK  status: ('A' for Active; 'I' for Inactive)
REMARK    1  A    between atoms: C1_2  and  C2_3 
ROOT
ATOM      1  C2  UNL d   1       1.419  -0.202  -0.229  0.00  0.00    -0.076 A 
ATOM      2  C3  UNL d   1       1.881   0.432   0.937  0.00  0.00     0.004 A 
ATOM      3  C4  UNL d   1       1.170   1.485   1.511  0.00  0.00    -0.003 A 
ATOM      4  C5  UNL d   1      -0.015   1.920   0.927  0.00  0.00     0.000 A 
ATOM      5  C6  UNL d   1      -0.497   1.291  -0.220  0.00  0.00     0.000 A 
ATOM      6  C7  UNL d   1       0.199   0.217  -0.801  0.00  0.00    -0.073 A 
ATOM      7  C8  UNL d   1      -0.363  -0.421  -2.042  0.00  0.00     0.078 C 
ENDROOT
BRANCH   1   8
ATOM      8  C1  UNL d   1       2.247  -1.320  -0.821  0.00  0.00     0.053 C 
ATOM      9  C   UNL d   1       3.702  -0.925  -1.022  0.00  0.00     0.018 C 
ENDBRANCH   1   8
TORSDOF 1
ENDMDL
