MODEL 1
REMARK minimizedAffinity 8.98838329
REMARK minimizedRMSD -1
REMARK  1 active torsions:
REMARK  status: ('A' for Active; 'I' for Inactive)
REMARK    1  A    between atoms: C1_2  and  C2_3 
ROOT
ATOM      1  C2  UNL d   1      -0.019   1.168   3.009  0.00  0.00    -0.076 A 
ATOM      2  C3  UNL d   1       1.316   1.235   2.574  0.00  0.00     0.004 A 
ATOM      3  C4  UNL d   1       1.695   2.105   1.553  0.00  0.00    -0.003 A 
ATOM      4  C5  UNL d   1       0.745   2.924   0.952  0.00  0.00     0.000 A 
ATOM      5  C6  UNL d   1      -0.580   2.883   1.383  0.00  0.00     0.000 A 
ATOM      6  C7  UNL d   1      -0.976   2.023   2.422  0.00  0.00    -0.073 A 
ATOM      7  C8  UNL d   1      -2.420   2.016   2.843  0.00  0.00     0.078 C 
ENDROOT
BRANCH   1   8
ATOM      8  C1  UNL d   1      -0.376   0.185   4.101  0.00  0.00     0.053 C 
ATOM      9  C   UNL d   1       0.600  -0.978   4.180  0.00  0.00     0.018 C 
ENDBRANCH   1   8
TORSDOF 1
ENDMDL
