MODEL 1
REMARK minimizedAffinity 9.30960369
REMARK minimizedRMSD -1
REMARK  1 active torsions:
REMARK  status: ('A' for Active; 'I' for Inactive)
REMARK    1  A    between atoms: C1_2  and  C2_3 
ROOT
ATOM      1  C2  UNL d   1       0.511   0.165   2.648  0.00  0.00    -0.076 A 
ATOM      2  C3  UNL d   1      -0.565   0.838   3.253  0.00  0.00     0.004 A 
ATOM      3  C4  UNL d   1      -1.005   2.069   2.769  0.00  0.00    -0.003 A 
ATOM      4  C5  UNL d   1      -0.376   2.647   1.671  0.00  0.00     0.000 A 
ATOM      5  C6  UNL d   1       0.681   1.985   1.048  0.00  0.00     0.000 A 
ATOM      6  C7  UNL d   1       1.126   0.735   1.513  0.00  0.00    -0.073 A 
ATOM      7  C8  UNL d   1       2.274   0.069   0.806  0.00  0.00     0.078 C 
ENDROOT
BRANCH   1   8
ATOM      8  C1  UNL d   1       0.961  -1.154   3.234  0.00  0.00     0.053 C 
ATOM      9  C   UNL d   1       0.361  -1.417   4.606  0.00  0.00     0.018 C 
ENDBRANCH   1   8
TORSDOF 1
ENDMDL
