MODEL 1
REMARK minimizedAffinity 20.3872147
REMARK minimizedRMSD -1
REMARK  0 active torsions:
REMARK  status: ('A' for Active; 'I' for Inactive)
ROOT
ATOM      1  C   UNL d   1       1.507  -1.595   4.872  0.00  0.00    -0.002 A 
ATOM      2  C1  UNL d   1       2.161  -1.933   3.696  0.00  0.00     0.010 A 
ATOM      3  C2  UNL d   1       2.163  -1.058   2.607  0.00  0.00     0.041 A 
ATOM      4  C3  UNL d   1       1.490   0.175   2.723  0.00  0.00    -0.075 A 
ATOM      5  S   UNL d   1       1.359   1.404   1.522  0.00  0.00     0.015 SA
ATOM      6  C4  UNL d   1       0.433   2.407   2.542  0.00  0.00     0.022 A 
ATOM      7  C5  UNL d   1       0.219   1.833   3.773  0.00  0.00     0.026 A 
ATOM      8  C6  UNL d   1       0.826   0.537   3.898  0.00  0.00    -0.082 A 
ATOM      9  C7  UNL d   1       0.842  -0.372   4.983  0.00  0.00     0.045 A 
ENDROOT
TORSDOF 0
ENDMDL
