MODEL 1
REMARK minimizedAffinity 9.95637417
REMARK minimizedRMSD -1
REMARK  0 active torsions:
REMARK  status: ('A' for Active; 'I' for Inactive)
ROOT
ATOM      1  C   UNL d   1       0.898   4.044  -0.739  0.00  0.00    -0.002 A 
ATOM      2  C1  UNL d   1       0.493   5.323  -1.093  0.00  0.00     0.010 A 
ATOM      3  C2  UNL d   1      -0.464   6.000  -0.335  0.00  0.00     0.041 A 
ATOM      4  C3  UNL d   1      -1.012   5.364   0.796  0.00  0.00    -0.075 A 
ATOM      5  S   UNL d   1      -2.199   6.000   1.873  0.00  0.00     0.015 SA
ATOM      6  C4  UNL d   1      -2.195   4.589   2.829  0.00  0.00     0.022 A 
ATOM      7  C5  UNL d   1      -1.316   3.645   2.352  0.00  0.00     0.026 A 
ATOM      8  C6  UNL d   1      -0.620   4.076   1.173  0.00  0.00    -0.082 A 
ATOM      9  C7  UNL d   1       0.352   3.416   0.384  0.00  0.00     0.045 A 
ENDROOT
TORSDOF 0
ENDMDL
