MODEL 1
REMARK minimizedAffinity 8.91117954
REMARK minimizedRMSD -1
REMARK  0 active torsions:
REMARK  status: ('A' for Active; 'I' for Inactive)
ROOT
ATOM      1  C   UNL d   1       0.410   3.220   0.803  0.00  0.00    -0.002 A 
ATOM      2  C1  UNL d   1       0.142   2.715   2.068  0.00  0.00     0.010 A 
ATOM      3  C2  UNL d   1      -1.076   2.089   2.338  0.00  0.00     0.041 A 
ATOM      4  C3  UNL d   1      -2.029   1.975   1.306  0.00  0.00    -0.075 A 
ATOM      5  S   UNL d   1      -3.588   1.247   1.406  0.00  0.00     0.015 SA
ATOM      6  C4  UNL d   1      -3.934   1.588  -0.227  0.00  0.00     0.022 A 
ATOM      7  C5  UNL d   1      -2.897   2.241  -0.849  0.00  0.00     0.026 A 
ATOM      8  C6  UNL d   1      -1.781   2.475   0.025  0.00  0.00    -0.082 A 
ATOM      9  C7  UNL d   1      -0.537   3.105  -0.218  0.00  0.00     0.045 A 
ENDROOT
TORSDOF 0
ENDMDL
