MODEL 1
REMARK minimizedAffinity 15.2133942
REMARK minimizedRMSD -1
REMARK  0 active torsions:
REMARK  status: ('A' for Active; 'I' for Inactive)
ROOT
ATOM      1  C   UNL d   1       0.345   2.120   1.885  0.00  0.00    -0.002 A 
ATOM      2  C1  UNL d   1      -0.697   2.626   2.650  0.00  0.00     0.010 A 
ATOM      3  C2  UNL d   1      -1.319   3.825   2.297  0.00  0.00     0.041 A 
ATOM      4  C3  UNL d   1      -0.873   4.514   1.152  0.00  0.00    -0.075 A 
ATOM      5  S   UNL d   1      -1.486   6.000   0.528  0.00  0.00     0.015 SA
ATOM      6  C4  UNL d   1      -0.379   5.997  -0.769  0.00  0.00     0.022 A 
ATOM      7  C5  UNL d   1       0.445   4.897  -0.741  0.00  0.00     0.026 A 
ATOM      8  C6  UNL d   1       0.173   4.024   0.366  0.00  0.00    -0.082 A 
ATOM      9  C7  UNL d   1       0.784   2.806   0.749  0.00  0.00     0.045 A 
ENDROOT
TORSDOF 0
ENDMDL
