MODEL 1
REMARK minimizedAffinity 6.67192698
REMARK minimizedRMSD -1
REMARK  0 active torsions:
REMARK  status: ('A' for Active; 'I' for Inactive)
ROOT
ATOM      1  C   UNL d   1      -5.725   1.270  -3.893  0.00  0.00    -0.002 A 
ATOM      2  C1  UNL d   1      -5.551   1.252  -5.270  0.00  0.00     0.010 A 
ATOM      3  C2  UNL d   1      -5.530   2.443  -5.999  0.00  0.00     0.041 A 
ATOM      4  C3  UNL d   1      -5.686   3.664  -5.314  0.00  0.00    -0.075 A 
ATOM      5  S   UNL d   1      -5.692   5.246  -5.999  0.00  0.00     0.015 SA
ATOM      6  C4  UNL d   1      -5.924   5.984  -4.481  0.00  0.00     0.022 A 
ATOM      7  C5  UNL d   1      -5.998   5.060  -3.465  0.00  0.00     0.026 A 
ATOM      8  C6  UNL d   1      -5.861   3.708  -3.928  0.00  0.00    -0.082 A 
ATOM      9  C7  UNL d   1      -5.879   2.484  -3.217  0.00  0.00     0.045 A 
ENDROOT
TORSDOF 0
ENDMDL
