MODEL 1
REMARK minimizedAffinity -4.01178169
REMARK minimizedRMSD -1
REMARK  0 active torsions:
REMARK  status: ('A' for Active; 'I' for Inactive)
ROOT
ATOM      1  C   UNL d   1       2.421  -0.945   1.160  0.00  0.00     0.077 C 
ATOM      2  C1  UNL d   1       1.126  -0.238   0.892  0.00  0.00    -0.074 A 
ATOM      3  C2  UNL d   1       0.663  -0.057  -0.416  0.00  0.00    -0.005 A 
ATOM      4  C3  UNL d   1      -0.548   0.594  -0.649  0.00  0.00     0.006 A 
ATOM      5  C4  UNL d   1      -1.308   1.070   0.421  0.00  0.00    -0.005 A 
ATOM      6  C5  UNL d   1      -0.862   0.896   1.735  0.00  0.00    -0.074 A 
ATOM      7  C6  UNL d   1      -1.671   1.392   2.896  0.00  0.00     0.077 C 
ATOM      8  C7  UNL d   1       0.353   0.235   1.961  0.00  0.00    -0.001 A 
ENDROOT
TORSDOF 0
ENDMDL
