MODEL 1
REMARK minimizedAffinity -2.43310452
REMARK minimizedRMSD -1
REMARK  0 active torsions:
REMARK  status: ('A' for Active; 'I' for Inactive)
ROOT
ATOM      1  C   UNL d   1       1.412   0.691  -3.073  0.00  0.00     0.077 C 
ATOM      2  C1  UNL d   1       0.745   0.188  -1.828  0.00  0.00    -0.074 A 
ATOM      3  C2  UNL d   1       0.552  -1.181  -1.619  0.00  0.00    -0.005 A 
ATOM      4  C3  UNL d   1      -0.061  -1.635  -0.451  0.00  0.00     0.006 A 
ATOM      5  C4  UNL d   1      -0.488  -0.726   0.517  0.00  0.00    -0.005 A 
ATOM      6  C5  UNL d   1      -0.303   0.647   0.326  0.00  0.00    -0.074 A 
ATOM      7  C6  UNL d   1      -0.747   1.637   1.362  0.00  0.00     0.077 C 
ATOM      8  C7  UNL d   1       0.320   1.095  -0.846  0.00  0.00    -0.001 A 
ENDROOT
TORSDOF 0
ENDMDL
