MODEL 1
REMARK minimizedAffinity -5.71939182
REMARK minimizedRMSD -1
REMARK  0 active torsions:
REMARK  status: ('A' for Active; 'I' for Inactive)
ROOT
ATOM      1  C   UNL d   1       0.475  -0.557  -1.152  0.00  0.00     0.077 C 
ATOM      2  C1  UNL d   1      -0.131  -0.149   0.158  0.00  0.00    -0.074 A 
ATOM      3  C2  UNL d   1      -1.518  -0.038   0.304  0.00  0.00    -0.005 A 
ATOM      4  C3  UNL d   1      -2.068   0.333   1.531  0.00  0.00     0.006 A 
ATOM      5  C4  UNL d   1      -1.239   0.595   2.623  0.00  0.00    -0.005 A 
ATOM      6  C5  UNL d   1       0.150   0.488   2.496  0.00  0.00    -0.074 A 
ATOM      7  C6  UNL d   1       1.055   0.756   3.661  0.00  0.00     0.077 C 
ATOM      8  C7  UNL d   1       0.695   0.108   1.261  0.00  0.00    -0.001 A 
ENDROOT
TORSDOF 0
ENDMDL
