MODEL 1
REMARK minimizedAffinity -4.71809959
REMARK minimizedRMSD -1
REMARK  0 active torsions:
REMARK  status: ('A' for Active; 'I' for Inactive)
ROOT
ATOM      1  C   UNL d   1       0.388   1.508  -4.034  0.00  0.00     0.077 C 
ATOM      2  C1  UNL d   1       0.337   0.714  -2.763  0.00  0.00    -0.074 A 
ATOM      3  C2  UNL d   1       1.126  -0.429  -2.597  0.00  0.00    -0.005 A 
ATOM      4  C3  UNL d   1       1.075  -1.152  -1.406  0.00  0.00     0.006 A 
ATOM      5  C4  UNL d   1       0.236  -0.741  -0.369  0.00  0.00    -0.005 A 
ATOM      6  C5  UNL d   1      -0.560   0.400  -0.517  0.00  0.00    -0.074 A 
ATOM      7  C6  UNL d   1      -1.460   0.861   0.591  0.00  0.00     0.077 C 
ATOM      8  C7  UNL d   1      -0.498   1.125  -1.714  0.00  0.00    -0.001 A 
ENDROOT
TORSDOF 0
ENDMDL
