MODEL 1
REMARK minimizedAffinity -3.84639764
REMARK minimizedRMSD -1
REMARK  0 active torsions:
REMARK  status: ('A' for Active; 'I' for Inactive)
ROOT
ATOM      1  C   UNL d   1       0.092  -0.306  -1.426  0.00  0.00     0.077 C 
ATOM      2  C1  UNL d   1      -0.344   0.025  -0.029  0.00  0.00    -0.074 A 
ATOM      3  C2  UNL d   1      -1.568   0.656   0.212  0.00  0.00    -0.005 A 
ATOM      4  C3  UNL d   1      -1.964   0.948   1.517  0.00  0.00     0.006 A 
ATOM      5  C4  UNL d   1      -1.140   0.613   2.593  0.00  0.00    -0.005 A 
ATOM      6  C5  UNL d   1       0.087  -0.020   2.371  0.00  0.00    -0.074 A 
ATOM      7  C6  UNL d   1       0.979  -0.396   3.517  0.00  0.00     0.077 C 
ATOM      8  C7  UNL d   1       0.474  -0.316   1.057  0.00  0.00    -0.001 A 
ENDROOT
TORSDOF 0
ENDMDL
