MODEL 1
REMARK minimizedAffinity -5.56339121
REMARK minimizedRMSD -1
REMARK  0 active torsions:
REMARK  status: ('A' for Active; 'I' for Inactive)
ROOT
ATOM      1  C   UNL d   1       0.710  -0.779   4.262  0.00  0.00     0.077 C 
ATOM      2  C1  UNL d   1       0.023  -0.150   3.087  0.00  0.00    -0.074 A 
ATOM      3  C2  UNL d   1      -0.969   0.818   3.268  0.00  0.00    -0.005 A 
ATOM      4  C3  UNL d   1      -1.593   1.401   2.165  0.00  0.00     0.006 A 
ATOM      5  C4  UNL d   1      -1.232   1.022   0.872  0.00  0.00    -0.005 A 
ATOM      6  C5  UNL d   1      -0.241   0.055   0.671  0.00  0.00    -0.074 A 
ATOM      7  C6  UNL d   1       0.166  -0.357  -0.713  0.00  0.00     0.077 C 
ATOM      8  C7  UNL d   1       0.386  -0.521   1.784  0.00  0.00    -0.001 A 
ENDROOT
TORSDOF 0
ENDMDL
