MODEL 1
REMARK minimizedAffinity 12.8898745
REMARK minimizedRMSD -1
REMARK  0 active torsions:
REMARK  status: ('A' for Active; 'I' for Inactive)
ROOT
ATOM      1  C   UNL d   1       0.721   5.436  -0.789  0.00  0.00     0.020 A 
ATOM      2  C1  UNL d   1       1.091   4.099  -0.648  0.00  0.00     0.020 A 
ATOM      3  C2  UNL d   1       0.537   3.326   0.374  0.00  0.00     0.034 A 
ATOM      4  C3  UNL d   1      -0.390   3.888   1.259  0.00  0.00     0.017 A 
ATOM      5  C4  UNL d   1      -0.761   5.230   1.116  0.00  0.00     0.017 A 
ATOM      6  C5  UNL d   1      -0.203   6.000   0.091  0.00  0.00     0.034 A 
ATOM      7 Cl   UNL d   1      -1.899   5.994   2.170  0.00  0.00    -0.070 Cl
ATOM      8 Cl1  UNL d   1      -1.034   2.872   2.499  0.00  0.00    -0.070 Cl
ENDROOT
TORSDOF 0
ENDMDL
