MODEL 1
REMARK minimizedAffinity 4.19109869
REMARK minimizedRMSD -1
REMARK  0 active torsions:
REMARK  status: ('A' for Active; 'I' for Inactive)
ROOT
ATOM      1  C   UNL d   1       0.861  -5.999  -2.108  0.00  0.00     0.020 A 
ATOM      2  C1  UNL d   1       1.125  -5.792  -0.755  0.00  0.00     0.020 A 
ATOM      3  C2  UNL d   1       2.319  -5.184  -0.361  0.00  0.00     0.034 A 
ATOM      4  C3  UNL d   1       3.254  -4.782  -1.322  0.00  0.00     0.017 A 
ATOM      5  C4  UNL d   1       2.988  -4.990  -2.680  0.00  0.00     0.017 A 
ATOM      6  C5  UNL d   1       1.791  -5.600  -3.069  0.00  0.00     0.034 A 
ATOM      7 Cl   UNL d   1       4.093  -4.521  -3.924  0.00  0.00    -0.070 Cl
ATOM      8 Cl1  UNL d   1       4.709  -4.036  -0.764  0.00  0.00    -0.070 Cl
ENDROOT
TORSDOF 0
ENDMDL
