MODEL 1
REMARK minimizedAffinity 10.1962662
REMARK minimizedRMSD -1
REMARK  0 active torsions:
REMARK  status: ('A' for Active; 'I' for Inactive)
ROOT
ATOM      1  C   UNL d   1       5.318  -1.759  -1.029  0.00  0.00     0.020 A 
ATOM      2  C1  UNL d   1       4.358  -2.097  -0.076  0.00  0.00     0.020 A 
ATOM      3  C2  UNL d   1       3.631  -3.282  -0.206  0.00  0.00     0.034 A 
ATOM      4  C3  UNL d   1       3.863  -4.133  -1.293  0.00  0.00     0.017 A 
ATOM      5  C4  UNL d   1       4.826  -3.793  -2.250  0.00  0.00     0.017 A 
ATOM      6  C5  UNL d   1       5.551  -2.605  -2.114  0.00  0.00     0.034 A 
ATOM      7 Cl   UNL d   1       5.167  -4.793  -3.618  0.00  0.00    -0.070 Cl
ATOM      8 Cl1  UNL d   1       2.927  -5.583  -1.391  0.00  0.00    -0.070 Cl
ENDROOT
TORSDOF 0
ENDMDL
