MODEL 1
REMARK minimizedAffinity 9.97788525
REMARK minimizedRMSD -1
REMARK  0 active torsions:
REMARK  status: ('A' for Active; 'I' for Inactive)
ROOT
ATOM      1  C   UNL d   1       0.401   5.265  -0.716  0.00  0.00     0.020 A 
ATOM      2  C1  UNL d   1       0.834   3.949  -0.557  0.00  0.00     0.020 A 
ATOM      3  C2  UNL d   1       0.280   3.149   0.446  0.00  0.00     0.034 A 
ATOM      4  C3  UNL d   1      -0.708   3.665   1.292  0.00  0.00     0.017 A 
ATOM      5  C4  UNL d   1      -1.141   4.986   1.131  0.00  0.00     0.017 A 
ATOM      6  C5  UNL d   1      -0.584   5.782   0.126  0.00  0.00     0.034 A 
ATOM      7 Cl   UNL d   1      -2.356   5.692   2.137  0.00  0.00    -0.070 Cl
ATOM      8 Cl1  UNL d   1      -1.348   2.619   2.510  0.00  0.00    -0.070 Cl
ENDROOT
TORSDOF 0
ENDMDL
