MODEL 1
REMARK minimizedAffinity 8.73585129
REMARK minimizedRMSD -1
REMARK  0 active torsions:
REMARK  status: ('A' for Active; 'I' for Inactive)
ROOT
ATOM      1  C   UNL d   1      -0.418   5.468  -0.831  0.00  0.00     0.020 A 
ATOM      2  C1  UNL d   1      -0.451   6.000   0.458  0.00  0.00     0.020 A 
ATOM      3  C2  UNL d   1      -0.254   5.168   1.562  0.00  0.00     0.034 A 
ATOM      4  C3  UNL d   1      -0.024   3.799   1.380  0.00  0.00     0.017 A 
ATOM      5  C4  UNL d   1       0.009   3.266   0.087  0.00  0.00     0.017 A 
ATOM      6  C5  UNL d   1      -0.189   4.104  -1.016  0.00  0.00     0.034 A 
ATOM      7 Cl   UNL d   1       0.288   1.588  -0.217  0.00  0.00    -0.070 Cl
ATOM      8 Cl1  UNL d   1       0.212   2.830   2.791  0.00  0.00    -0.070 Cl
ENDROOT
TORSDOF 0
ENDMDL
