MODEL 1
REMARK minimizedAffinity 15.3119984
REMARK minimizedRMSD -1
REMARK  0 active torsions:
REMARK  status: ('A' for Active; 'I' for Inactive)
ROOT
ATOM      1  C   UNL d   1       6.000  -2.512  -1.635  0.00  0.00     0.020 A 
ATOM      2  C1  UNL d   1       5.636  -1.500  -0.747  0.00  0.00     0.020 A 
ATOM      3  C2  UNL d   1       4.595  -1.708   0.159  0.00  0.00     0.034 A 
ATOM      4  C3  UNL d   1       3.913  -2.930   0.180  0.00  0.00     0.017 A 
ATOM      5  C4  UNL d   1       4.278  -3.945  -0.711  0.00  0.00     0.017 A 
ATOM      6  C5  UNL d   1       5.322  -3.732  -1.617  0.00  0.00     0.034 A 
ATOM      7 Cl   UNL d   1       3.484  -5.480  -0.745  0.00  0.00    -0.070 Cl
ATOM      8 Cl1  UNL d   1       2.635  -3.118   1.328  0.00  0.00    -0.070 Cl
ENDROOT
TORSDOF 0
ENDMDL
