MODEL 1
REMARK minimizedAffinity 9.49067593
REMARK minimizedRMSD -1
REMARK  0 active torsions:
REMARK  status: ('A' for Active; 'I' for Inactive)
ROOT
ATOM      1  C   UNL d   1      -0.760  -1.422  -1.662  0.00  0.00     0.020 A 
ATOM      2  C1  UNL d   1      -0.506  -1.282  -3.026  0.00  0.00     0.020 A 
ATOM      3  C2  UNL d   1      -1.141  -0.274  -3.754  0.00  0.00     0.034 A 
ATOM      4  C3  UNL d   1      -2.033   0.598  -3.120  0.00  0.00     0.017 A 
ATOM      5  C4  UNL d   1      -2.288   0.457  -1.751  0.00  0.00     0.017 A 
ATOM      6  C5  UNL d   1      -1.649  -0.554  -1.026  0.00  0.00     0.034 A 
ATOM      7 Cl   UNL d   1      -3.376   1.495  -0.899  0.00  0.00    -0.070 Cl
ATOM      8 Cl1  UNL d   1      -2.782   1.822  -4.083  0.00  0.00    -0.070 Cl
ENDROOT
TORSDOF 0
ENDMDL
