MODEL 1
REMARK minimizedAffinity 14.7874088
REMARK minimizedRMSD -1
REMARK  0 active torsions:
REMARK  status: ('A' for Active; 'I' for Inactive)
ROOT
ATOM      1  C   UNL d   1      -0.130   4.084  -0.529  0.00  0.00     0.020 A 
ATOM      2  C1  UNL d   1       0.112   2.806  -0.026  0.00  0.00     0.020 A 
ATOM      3  C2  UNL d   1      -0.464   2.411   1.183  0.00  0.00     0.034 A 
ATOM      4  C3  UNL d   1      -1.285   3.294   1.894  0.00  0.00     0.017 A 
ATOM      5  C4  UNL d   1      -1.527   4.577   1.388  0.00  0.00     0.017 A 
ATOM      6  C5  UNL d   1      -0.948   4.967   0.177  0.00  0.00     0.034 A 
ATOM      7 Cl   UNL d   1      -2.529   5.722   2.208  0.00  0.00    -0.070 Cl
ATOM      8 Cl1  UNL d   1      -1.964   2.739   3.382  0.00  0.00    -0.070 Cl
ENDROOT
TORSDOF 0
ENDMDL
