MODEL 1
REMARK minimizedAffinity 7.04929733
REMARK minimizedRMSD -1
REMARK  0 active torsions:
REMARK  status: ('A' for Active; 'I' for Inactive)
ROOT
ATOM      1  C   UNL d   1       4.984  -2.223  -2.171  0.00  0.00     0.020 A 
ATOM      2  C1  UNL d   1       5.695  -2.324  -0.977  0.00  0.00     0.020 A 
ATOM      3  C2  UNL d   1       5.114  -1.902   0.220  0.00  0.00     0.034 A 
ATOM      4  C3  UNL d   1       3.817  -1.376   0.226  0.00  0.00     0.017 A 
ATOM      5  C4  UNL d   1       3.103  -1.274  -0.973  0.00  0.00     0.017 A 
ATOM      6  C5  UNL d   1       3.690  -1.699  -2.170  0.00  0.00     0.034 A 
ATOM      7 Cl   UNL d   1       1.499  -0.636  -1.046  0.00  0.00    -0.070 Cl
ATOM      8 Cl1  UNL d   1       3.160  -0.874   1.743  0.00  0.00    -0.070 Cl
ENDROOT
TORSDOF 0
ENDMDL
