MODEL 1
REMARK minimizedAffinity 4.5519228
REMARK minimizedRMSD -1
REMARK  0 active torsions:
REMARK  status: ('A' for Active; 'I' for Inactive)
ROOT
ATOM      1  C   UNL d   1      -0.542   3.319   0.408  0.00  0.00     0.020 A 
ATOM      2  C1  UNL d   1      -0.815   3.314   1.775  0.00  0.00     0.020 A 
ATOM      3  C2  UNL d   1      -0.219   2.360   2.603  0.00  0.00     0.034 A 
ATOM      4  C3  UNL d   1       0.654   1.407   2.064  0.00  0.00     0.017 A 
ATOM      5  C4  UNL d   1       0.927   1.413   0.692  0.00  0.00     0.017 A 
ATOM      6  C5  UNL d   1       0.328   2.370  -0.132  0.00  0.00     0.034 A 
ATOM      7 Cl   UNL d   1       1.993   0.270  -0.046  0.00  0.00    -0.070 Cl
ATOM      8 Cl1  UNL d   1       1.356   0.258   3.147  0.00  0.00    -0.070 Cl
ENDROOT
TORSDOF 0
ENDMDL
