MODEL 1
REMARK minimizedAffinity 5.79591227
REMARK minimizedRMSD -1
REMARK  0 active torsions:
REMARK  status: ('A' for Active; 'I' for Inactive)
ROOT
ATOM      1  C   UNL d   1       1.827   0.646   2.877  0.00  0.00     0.020 A 
ATOM      2  C1  UNL d   1       1.141   1.701   3.478  0.00  0.00     0.020 A 
ATOM      3  C2  UNL d   1       0.364   2.562   2.700  0.00  0.00     0.034 A 
ATOM      4  C3  UNL d   1       0.270   2.370   1.317  0.00  0.00     0.017 A 
ATOM      5  C4  UNL d   1       0.959   1.310   0.714  0.00  0.00     0.017 A 
ATOM      6  C5  UNL d   1       1.736   0.451   1.498  0.00  0.00     0.034 A 
ATOM      7 Cl   UNL d   1       0.892   1.010  -0.986  0.00  0.00    -0.070 Cl
ATOM      8 Cl1  UNL d   1      -0.710   3.472   0.417  0.00  0.00    -0.070 Cl
ENDROOT
TORSDOF 0
ENDMDL
