MODEL 1
REMARK minimizedAffinity 10.2142544
REMARK minimizedRMSD -1
REMARK  0 active torsions:
REMARK  status: ('A' for Active; 'I' for Inactive)
ROOT
ATOM      1  C   UNL d   1      -0.877   2.243   3.051  0.00  0.00     0.020 A 
ATOM      2  C1  UNL d   1       0.037   1.721   2.136  0.00  0.00     0.020 A 
ATOM      3  C2  UNL d   1       0.391   2.458   1.004  0.00  0.00     0.034 A 
ATOM      4  C3  UNL d   1      -0.169   3.721   0.784  0.00  0.00     0.017 A 
ATOM      5  C4  UNL d   1      -1.086   4.245   1.702  0.00  0.00     0.017 A 
ATOM      6  C5  UNL d   1      -1.437   3.502   2.834  0.00  0.00     0.034 A 
ATOM      7 Cl   UNL d   1      -1.819   5.797   1.498  0.00  0.00    -0.070 Cl
ATOM      8 Cl1  UNL d   1       0.314   4.578  -0.637  0.00  0.00    -0.070 Cl
ENDROOT
TORSDOF 0
ENDMDL
