MODEL 1
REMARK minimizedAffinity 17.2188969
REMARK minimizedRMSD -1
REMARK  0 active torsions:
REMARK  status: ('A' for Active; 'I' for Inactive)
ROOT
ATOM      1  C   UNL d   1       2.925  -1.439  -0.192  0.00  0.00     0.124 A 
ATOM      2  C1  UNL d   1       2.468  -1.211  -1.483  0.00  0.00     0.062 A 
ATOM      3  C2  UNL d   1       1.264  -1.765  -1.907  0.00  0.00     0.162 A 
ATOM      4  C3  UNL d   1       0.507  -2.552  -1.039  0.00  0.00    -0.034 A 
ATOM      5  C4  UNL d   1       0.973  -2.777   0.257  0.00  0.00     0.162 A 
ATOM      6  C5  UNL d   1       2.177  -2.221   0.677  0.00  0.00     0.062 A 
ATOM      7  F   UNL d   1       2.617  -2.442   1.924  0.00  0.00    -0.097 F 
ATOM      8  F1  UNL d   1       0.270  -3.529   1.118  0.00  0.00    -0.096 F 
ATOM      9  I   UNL d   1      -1.294  -3.382  -1.669  0.00  0.00    -0.060 I 
ATOM     10  F2  UNL d   1       0.847  -1.529  -3.160  0.00  0.00    -0.096 F 
ATOM     11  F3  UNL d   1       3.189  -0.456  -2.324  0.00  0.00    -0.097 F 
ATOM     12  F4  UNL d   1       4.085  -0.905   0.213  0.00  0.00    -0.092 F 
ENDROOT
TORSDOF 0
ENDMDL
