MODEL 1
REMARK minimizedAffinity 27.6764984
REMARK minimizedRMSD -1
REMARK  0 active torsions:
REMARK  status: ('A' for Active; 'I' for Inactive)
ROOT
ATOM      1  C   UNL d   1      -2.877  -0.120  -4.503  0.00  0.00     0.124 A 
ATOM      2  C1  UNL d   1      -2.632  -0.584  -3.218  0.00  0.00     0.062 A 
ATOM      3  C2  UNL d   1      -3.521  -0.294  -2.187  0.00  0.00     0.162 A 
ATOM      4  C3  UNL d   1      -4.666   0.463  -2.438  0.00  0.00    -0.034 A 
ATOM      5  C4  UNL d   1      -4.906   0.926  -3.733  0.00  0.00     0.162 A 
ATOM      6  C5  UNL d   1      -4.014   0.634  -4.759  0.00  0.00     0.062 A 
ATOM      7  F   UNL d   1      -4.252   1.083  -6.000  0.00  0.00    -0.097 F 
ATOM      8  F1  UNL d   1      -5.996   1.657  -4.008  0.00  0.00    -0.096 F 
ATOM      9  I   UNL d   1      -5.999   0.898  -0.900  0.00  0.00    -0.060 I 
ATOM     10  F2  UNL d   1      -3.259  -0.755  -0.955  0.00  0.00    -0.096 F 
ATOM     11  F3  UNL d   1      -1.534  -1.312  -2.968  0.00  0.00    -0.097 F 
ATOM     12  F4  UNL d   1      -2.019  -0.400  -5.492  0.00  0.00    -0.092 F 
ENDROOT
TORSDOF 0
ENDMDL
