MODEL 1
REMARK minimizedAffinity 17.4789829
REMARK minimizedRMSD -1
REMARK  0 active torsions:
REMARK  status: ('A' for Active; 'I' for Inactive)
ROOT
ATOM      1  C   UNL d   1       2.522   1.158   0.946  0.00  0.00     0.124 A 
ATOM      2  C1  UNL d   1       3.157  -0.040   0.649  0.00  0.00     0.062 A 
ATOM      3  C2  UNL d   1       2.635  -0.887  -0.324  0.00  0.00     0.162 A 
ATOM      4  C3  UNL d   1       1.471  -0.539  -1.009  0.00  0.00    -0.034 A 
ATOM      5  C4  UNL d   1       0.837   0.667  -0.705  0.00  0.00     0.162 A 
ATOM      6  C5  UNL d   1       1.363   1.511   0.269  0.00  0.00     0.062 A 
ATOM      7  F   UNL d   1       0.748   2.668   0.554  0.00  0.00    -0.097 F 
ATOM      8  F1  UNL d   1      -0.284   1.033  -1.344  0.00  0.00    -0.096 F 
ATOM      9  I   UNL d   1       0.687  -1.803  -2.464  0.00  0.00    -0.060 I 
ATOM     10  F2  UNL d   1       3.270  -2.038  -0.589  0.00  0.00    -0.096 F 
ATOM     11  F3  UNL d   1       4.277  -0.383   1.303  0.00  0.00    -0.097 F 
ATOM     12  F4  UNL d   1       3.026   1.971   1.883  0.00  0.00    -0.092 F 
ENDROOT
TORSDOF 0
ENDMDL
