MODEL 1
REMARK minimizedAffinity 8.9824028
REMARK minimizedRMSD -1
REMARK  0 active torsions:
REMARK  status: ('A' for Active; 'I' for Inactive)
ROOT
ATOM      1  C   UNL d   1      -3.688   0.352  -1.416  0.00  0.00     0.124 A 
ATOM      2  C1  UNL d   1      -2.661   0.108  -2.317  0.00  0.00     0.062 A 
ATOM      3  C2  UNL d   1      -2.626   0.779  -3.536  0.00  0.00     0.162 A 
ATOM      4  C3  UNL d   1      -3.620   1.701  -3.861  0.00  0.00    -0.034 A 
ATOM      5  C4  UNL d   1      -4.650   1.940  -2.950  0.00  0.00     0.162 A 
ATOM      6  C5  UNL d   1      -4.681   1.268  -1.733  0.00  0.00     0.062 A 
ATOM      7  F   UNL d   1      -5.674   1.505  -0.864  0.00  0.00    -0.097 F 
ATOM      8  F1  UNL d   1      -5.623   2.821  -3.231  0.00  0.00    -0.096 F 
ATOM      9  I   UNL d   1      -3.571   2.705  -5.683  0.00  0.00    -0.060 I 
ATOM     10  F2  UNL d   1      -1.621   0.523  -4.388  0.00  0.00    -0.096 F 
ATOM     11  F3  UNL d   1      -1.700  -0.777  -2.013  0.00  0.00    -0.097 F 
ATOM     12  F4  UNL d   1      -3.720  -0.295  -0.244  0.00  0.00    -0.092 F 
ENDROOT
TORSDOF 0
ENDMDL
