MODEL 1
REMARK minimizedAffinity 12.9526978
REMARK minimizedRMSD -1
REMARK  0 active torsions:
REMARK  status: ('A' for Active; 'I' for Inactive)
ROOT
ATOM      1  C   UNL d   1       2.429  -1.760   0.072  0.00  0.00     0.124 A 
ATOM      2  C1  UNL d   1       1.411  -1.453  -0.821  0.00  0.00     0.062 A 
ATOM      3  C2  UNL d   1       0.873  -0.169  -0.854  0.00  0.00     0.162 A 
ATOM      4  C3  UNL d   1       1.352   0.818   0.007  0.00  0.00    -0.034 A 
ATOM      5  C4  UNL d   1       2.376   0.501   0.903  0.00  0.00     0.162 A 
ATOM      6  C5  UNL d   1       2.910  -0.783   0.932  0.00  0.00     0.062 A 
ATOM      7  F   UNL d   1       3.894  -1.078   1.795  0.00  0.00    -0.097 F 
ATOM      8  F1  UNL d   1       2.860   1.426   1.745  0.00  0.00    -0.096 F 
ATOM      9  I   UNL d   1       0.551   2.738  -0.039  0.00  0.00    -0.060 I 
ATOM     10  F2  UNL d   1      -0.110   0.099  -1.726  0.00  0.00    -0.096 F 
ATOM     11  F3  UNL d   1       0.943  -2.395  -1.652  0.00  0.00    -0.097 F 
ATOM     12  F4  UNL d   1       2.944  -2.996   0.102  0.00  0.00    -0.092 F 
ENDROOT
TORSDOF 0
ENDMDL
