MODEL 1
REMARK minimizedAffinity 14.2541618
REMARK minimizedRMSD -1
REMARK  0 active torsions:
REMARK  status: ('A' for Active; 'I' for Inactive)
ROOT
ATOM      1  C   UNL d   1       2.552  -0.945   0.238  0.00  0.00     0.124 A 
ATOM      2  C1  UNL d   1       2.074  -1.840  -0.709  0.00  0.00     0.062 A 
ATOM      3  C2  UNL d   1       1.158  -1.421  -1.669  0.00  0.00     0.162 A 
ATOM      4  C3  UNL d   1       0.713  -0.099  -1.687  0.00  0.00    -0.034 A 
ATOM      5  C4  UNL d   1       1.197   0.795  -0.730  0.00  0.00     0.162 A 
ATOM      6  C5  UNL d   1       2.114   0.371   0.227  0.00  0.00     0.062 A 
ATOM      7  F   UNL d   1       2.574   1.237   1.141  0.00  0.00    -0.097 F 
ATOM      8  F1  UNL d   1       0.791   2.073  -0.719  0.00  0.00    -0.096 F 
ATOM      9  I   UNL d   1      -0.658   0.533  -3.120  0.00  0.00    -0.060 I 
ATOM     10  F2  UNL d   1       0.713  -2.307  -2.572  0.00  0.00    -0.096 F 
ATOM     11  F3  UNL d   1       2.496  -3.113  -0.700  0.00  0.00    -0.097 F 
ATOM     12  F4  UNL d   1       3.434  -1.352   1.161  0.00  0.00    -0.092 F 
ENDROOT
TORSDOF 0
ENDMDL
