MODEL 1
REMARK minimizedAffinity 2.55716872
REMARK minimizedRMSD -1
REMARK  0 active torsions:
REMARK  status: ('A' for Active; 'I' for Inactive)
ROOT
ATOM      1  C   UNL d   1       4.190   1.322   1.064  0.00  0.00     0.078 C 
ATOM      2  C1  UNL d   1       3.351   0.305   0.349  0.00  0.00    -0.077 A 
ATOM      3  C2  UNL d   1       3.094  -0.947   0.920  0.00  0.00    -0.001 A 
ATOM      4  C3  UNL d   1       2.319  -1.888   0.239  0.00  0.00     0.003 A 
ATOM      5  C4  UNL d   1       1.797  -1.587  -1.017  0.00  0.00    -0.005 A 
ATOM      6  C5  UNL d   1       2.049  -0.344  -1.594  0.00  0.00     0.003 A 
ATOM      7  C6  UNL d   1       2.824   0.598  -0.915  0.00  0.00    -0.001 A 
ENDROOT
TORSDOF 0
ENDMDL
