MODEL 1
REMARK minimizedAffinity 9.26591873
REMARK minimizedRMSD -1
REMARK  0 active torsions:
REMARK  status: ('A' for Active; 'I' for Inactive)
ROOT
ATOM      1  C   UNL d   1      -5.954   5.372   5.875  0.00  0.00     0.078 C 
ATOM      2  C1  UNL d   1      -5.770   5.041   4.425  0.00  0.00    -0.077 A 
ATOM      3  C2  UNL d   1      -6.000   6.000   3.431  0.00  0.00    -0.001 A 
ATOM      4  C3  UNL d   1      -5.833   5.675   2.084  0.00  0.00     0.003 A 
ATOM      5  C4  UNL d   1      -5.438   4.390   1.718  0.00  0.00    -0.005 A 
ATOM      6  C5  UNL d   1      -5.209   3.428   2.700  0.00  0.00     0.003 A 
ATOM      7  C6  UNL d   1      -5.375   3.751   4.047  0.00  0.00    -0.001 A 
ENDROOT
TORSDOF 0
ENDMDL
