MODEL 1
REMARK minimizedAffinity 9.39506817
REMARK minimizedRMSD -1
REMARK  0 active torsions:
REMARK  status: ('A' for Active; 'I' for Inactive)
ROOT
ATOM      1  C   UNL d   1       1.113  -1.027  -1.679  0.00  0.00     0.078 C 
ATOM      2  C1  UNL d   1       2.127  -0.194  -0.953  0.00  0.00    -0.077 A 
ATOM      3  C2  UNL d   1       2.836   0.816  -1.614  0.00  0.00    -0.001 A 
ATOM      4  C3  UNL d   1       3.785   1.577  -0.929  0.00  0.00     0.003 A 
ATOM      5  C4  UNL d   1       4.034   1.335   0.421  0.00  0.00    -0.005 A 
ATOM      6  C5  UNL d   1       3.335   0.330   1.086  0.00  0.00     0.003 A 
ATOM      7  C6  UNL d   1       2.386  -0.432   0.402  0.00  0.00    -0.001 A 
ENDROOT
TORSDOF 0
ENDMDL
