MODEL 1
REMARK minimizedAffinity 1.33048809
REMARK minimizedRMSD -1
REMARK  0 active torsions:
REMARK  status: ('A' for Active; 'I' for Inactive)
ROOT
ATOM      1  C   UNL d   1       1.918  -3.000  -1.131  0.00  0.00     0.078 C 
ATOM      2  C1  UNL d   1       2.411  -1.668  -0.651  0.00  0.00    -0.077 A 
ATOM      3  C2  UNL d   1       2.301  -0.526  -1.453  0.00  0.00    -0.001 A 
ATOM      4  C3  UNL d   1       2.773   0.706  -0.998  0.00  0.00     0.003 A 
ATOM      5  C4  UNL d   1       3.360   0.807   0.262  0.00  0.00    -0.005 A 
ATOM      6  C5  UNL d   1       3.477  -0.324   1.067  0.00  0.00     0.003 A 
ATOM      7  C6  UNL d   1       3.005  -1.557   0.613  0.00  0.00    -0.001 A 
ENDROOT
TORSDOF 0
ENDMDL
