MODEL 1
REMARK minimizedAffinity -0.0337356776
REMARK minimizedRMSD -1
REMARK  0 active torsions:
REMARK  status: ('A' for Active; 'I' for Inactive)
ROOT
ATOM      1  C   UNL d   1      -5.234   3.856   2.272  0.00  0.00     0.078 C 
ATOM      2  C1  UNL d   1      -5.013   4.602   3.553  0.00  0.00    -0.077 A 
ATOM      3  C2  UNL d   1      -3.824   5.306   3.782  0.00  0.00    -0.001 A 
ATOM      4  C3  UNL d   1      -3.628   5.988   4.984  0.00  0.00     0.003 A 
ATOM      5  C4  UNL d   1      -4.616   5.973   5.967  0.00  0.00    -0.005 A 
ATOM      6  C5  UNL d   1      -5.801   5.273   5.749  0.00  0.00     0.003 A 
ATOM      7  C6  UNL d   1      -5.999   4.590   4.548  0.00  0.00    -0.001 A 
ENDROOT
TORSDOF 0
ENDMDL
