MODEL 1
REMARK minimizedAffinity 0.0856323391
REMARK minimizedRMSD -1
REMARK  0 active torsions:
REMARK  status: ('A' for Active; 'I' for Inactive)
ROOT
ATOM      1  C   UNL d   1      -5.898   4.318   2.246  0.00  0.00     0.078 C 
ATOM      2  C1  UNL d   1      -5.335   4.805   3.548  0.00  0.00    -0.077 A 
ATOM      3  C2  UNL d   1      -4.157   5.561   3.586  0.00  0.00    -0.001 A 
ATOM      4  C3  UNL d   1      -3.640   6.000   4.806  0.00  0.00     0.003 A 
ATOM      5  C4  UNL d   1      -4.292   5.687   5.996  0.00  0.00    -0.005 A 
ATOM      6  C5  UNL d   1      -5.464   4.933   5.968  0.00  0.00     0.003 A 
ATOM      7  C6  UNL d   1      -5.983   4.494   4.749  0.00  0.00    -0.001 A 
ENDROOT
TORSDOF 0
ENDMDL
