MODEL 1
REMARK minimizedAffinity 3.998353
REMARK minimizedRMSD -1
REMARK  0 active torsions:
REMARK  status: ('A' for Active; 'I' for Inactive)
ROOT
ATOM      1  C   UNL d   1       4.805   1.547  -1.950  0.00  0.00     0.078 C 
ATOM      2  C1  UNL d   1       3.881   0.867  -0.985  0.00  0.00    -0.077 A 
ATOM      3  C2  UNL d   1       4.048   1.012   0.398  0.00  0.00    -0.001 A 
ATOM      4  C3  UNL d   1       3.185   0.365   1.284  0.00  0.00     0.003 A 
ATOM      5  C4  UNL d   1       2.150  -0.432   0.798  0.00  0.00    -0.005 A 
ATOM      6  C5  UNL d   1       1.977  -0.583  -0.576  0.00  0.00     0.003 A 
ATOM      7  C6  UNL d   1       2.839   0.063  -1.464  0.00  0.00    -0.001 A 
ENDROOT
TORSDOF 0
ENDMDL
