MODEL 1
REMARK minimizedAffinity 7.02514505
REMARK minimizedRMSD -1
REMARK  0 active torsions:
REMARK  status: ('A' for Active; 'I' for Inactive)
ROOT
ATOM      1  C   UNL d   1      -4.787   3.166   1.875  0.00  0.00     0.078 C 
ATOM      2  C1  UNL d   1      -5.213   3.864   3.132  0.00  0.00    -0.077 A 
ATOM      3  C2  UNL d   1      -5.209   5.261   3.219  0.00  0.00    -0.001 A 
ATOM      4  C3  UNL d   1      -5.599   5.897   4.398  0.00  0.00     0.003 A 
ATOM      5  C4  UNL d   1      -5.995   5.143   5.502  0.00  0.00    -0.005 A 
ATOM      6  C5  UNL d   1      -6.000   3.752   5.426  0.00  0.00     0.003 A 
ATOM      7  C6  UNL d   1      -5.610   3.114   4.247  0.00  0.00    -0.001 A 
ENDROOT
TORSDOF 0
ENDMDL
