MODEL 1
REMARK minimizedAffinity -1.92687774
REMARK minimizedRMSD -1
REMARK  0 active torsions:
REMARK  status: ('A' for Active; 'I' for Inactive)
ROOT
ATOM      1  C1  BNZ d   1      -4.962   5.229  -5.865  0.00  0.00     0.000 A 
ATOM      2  C2  BNZ d   1      -3.690   4.783  -5.624  0.00  0.00     0.000 A 
ATOM      3  C3  BNZ d   1      -3.431   3.448  -5.490  0.00  0.00     0.000 A 
ATOM      4  C4  BNZ d   1      -4.448   2.565  -5.558  0.00  0.00     0.000 A 
ATOM      5  C5  BNZ d   1      -5.737   3.000  -5.791  0.00  0.00     0.000 A 
ATOM      6  C6  BNZ d   1      -5.989   4.342  -5.964  0.00  0.00     0.000 A 
ENDROOT
TORSDOF 0
ENDMDL
