MODEL 1
REMARK minimizedAffinity -1.01737547
REMARK minimizedRMSD -1
REMARK  0 active torsions:
REMARK  status: ('A' for Active; 'I' for Inactive)
ROOT
ATOM      1  C1  BNZ d   1      -0.114   0.425   0.449  0.00  0.00     0.000 A 
ATOM      2  C2  BNZ d   1      -0.570  -0.800   0.858  0.00  0.00     0.000 A 
ATOM      3  C3  BNZ d   1      -0.234  -1.935   0.174  0.00  0.00     0.000 A 
ATOM      4  C4  BNZ d   1       0.523  -1.841  -0.938  0.00  0.00     0.000 A 
ATOM      5  C5  BNZ d   1       0.983  -0.612  -1.368  0.00  0.00     0.000 A 
ATOM      6  C6  BNZ d   1       0.675   0.525  -0.656  0.00  0.00     0.000 A 
ENDROOT
TORSDOF 0
ENDMDL
