MODEL 1
REMARK minimizedAffinity -2.62710214
REMARK minimizedRMSD -1
REMARK  0 active torsions:
REMARK  status: ('A' for Active; 'I' for Inactive)
ROOT
ATOM      1  C1  BNZ d   1      -5.292   2.974  -5.922  0.00  0.00     0.000 A 
ATOM      2  C2  BNZ d   1      -3.925   3.000  -5.844  0.00  0.00     0.000 A 
ATOM      3  C3  BNZ d   1      -3.248   4.187  -5.819  0.00  0.00     0.000 A 
ATOM      4  C4  BNZ d   1      -3.934   5.345  -5.911  0.00  0.00     0.000 A 
ATOM      5  C5  BNZ d   1      -5.312   5.335  -6.000  0.00  0.00     0.000 A 
ATOM      6  C6  BNZ d   1      -5.993   4.139  -5.986  0.00  0.00     0.000 A 
ENDROOT
TORSDOF 0
ENDMDL
