MODEL 1
REMARK minimizedAffinity -2.03305888
REMARK minimizedRMSD -1
REMARK  0 active torsions:
REMARK  status: ('A' for Active; 'I' for Inactive)
ROOT
ATOM      1  C1  BNZ d   1      -3.604   0.440   1.799  0.00  0.00     0.000 A 
ATOM      2  C2  BNZ d   1      -3.734   1.245   2.899  0.00  0.00     0.000 A 
ATOM      3  C3  BNZ d   1      -2.643   1.583   3.651  0.00  0.00     0.000 A 
ATOM      4  C4  BNZ d   1      -1.433   1.084   3.326  0.00  0.00     0.000 A 
ATOM      5  C5  BNZ d   1      -1.288   0.263   2.225  0.00  0.00     0.000 A 
ATOM      6  C6  BNZ d   1      -2.382  -0.043   1.448  0.00  0.00     0.000 A 
ENDROOT
TORSDOF 0
ENDMDL
