MODEL 1
REMARK minimizedAffinity -3.08320546
REMARK minimizedRMSD -1
REMARK  0 active torsions:
REMARK  status: ('A' for Active; 'I' for Inactive)
ROOT
ATOM      1  C1  BNZ d   1      -2.443   1.626   3.588  0.00  0.00     0.000 A 
ATOM      2  C2  BNZ d   1      -3.801   1.476   3.496  0.00  0.00     0.000 A 
ATOM      3  C3  BNZ d   1      -4.350   0.601   2.601  0.00  0.00     0.000 A 
ATOM      4  C4  BNZ d   1      -3.543  -0.092   1.772  0.00  0.00     0.000 A 
ATOM      5  C5  BNZ d   1      -2.172   0.055   1.846  0.00  0.00     0.000 A 
ATOM      6  C6  BNZ d   1      -1.622   0.908   2.775  0.00  0.00     0.000 A 
ENDROOT
TORSDOF 0
ENDMDL
