MODEL 1
REMARK minimizedAffinity -0.426439822
REMARK minimizedRMSD -1
REMARK  0 active torsions:
REMARK  status: ('A' for Active; 'I' for Inactive)
ROOT
ATOM      1  C1  BNZ d   1       0.716   0.342  -1.791  0.00  0.00     0.000 A 
ATOM      2  C2  BNZ d   1       0.229   0.994  -0.690  0.00  0.00     0.000 A 
ATOM      3  C3  BNZ d   1       1.038   1.805   0.057  0.00  0.00     0.000 A 
ATOM      4  C4  BNZ d   1       2.339   1.932  -0.275  0.00  0.00     0.000 A 
ATOM      5  C5  BNZ d   1       2.846   1.273  -1.377  0.00  0.00     0.000 A 
ATOM      6  C6  BNZ d   1       2.020   0.488  -2.149  0.00  0.00     0.000 A 
ENDROOT
TORSDOF 0
ENDMDL
