MODEL 1
REMARK minimizedAffinity -4.1278019
REMARK minimizedRMSD -1
REMARK  0 active torsions:
REMARK  status: ('A' for Active; 'I' for Inactive)
ROOT
ATOM      1  C1  BNZ d   1       0.565  -1.293  -1.901  0.00  0.00     0.000 A 
ATOM      2  C2  BNZ d   1      -0.171  -0.985  -0.788  0.00  0.00     0.000 A 
ATOM      3  C3  BNZ d   1       0.064   0.166  -0.090  0.00  0.00     0.000 A 
ATOM      4  C4  BNZ d   1       1.060   0.987  -0.482  0.00  0.00     0.000 A 
ATOM      5  C5  BNZ d   1       1.817   0.686  -1.596  0.00  0.00     0.000 A 
ATOM      6  C6  BNZ d   1       1.552  -0.455  -2.319  0.00  0.00     0.000 A 
ENDROOT
TORSDOF 0
ENDMDL
