MODEL 1
REMARK minimizedAffinity -2.31846523
REMARK minimizedRMSD -1
REMARK  0 active torsions:
REMARK  status: ('A' for Active; 'I' for Inactive)
ROOT
ATOM      1  C1  BNZ d   1      -2.721   1.958   3.800  0.00  0.00     0.000 A 
ATOM      2  C2  BNZ d   1      -2.642   1.187   2.671  0.00  0.00     0.000 A 
ATOM      3  C3  BNZ d   1      -3.715   1.059   1.833  0.00  0.00     0.000 A 
ATOM      4  C4  BNZ d   1      -4.876   1.669   2.147  0.00  0.00     0.000 A 
ATOM      5  C5  BNZ d   1      -4.975   2.442   3.286  0.00  0.00     0.000 A 
ATOM      6  C6  BNZ d   1      -3.881   2.600   4.106  0.00  0.00     0.000 A 
ENDROOT
TORSDOF 0
ENDMDL
