MODEL 1
REMARK minimizedAffinity -4.45625877
REMARK minimizedRMSD -1
REMARK  0 active torsions:
REMARK  status: ('A' for Active; 'I' for Inactive)
ROOT
ATOM      1  C1  BNZ d   1       0.471   0.965  -0.717  0.00  0.00     0.000 A 
ATOM      2  C2  BNZ d   1      -0.061   0.122   0.223  0.00  0.00     0.000 A 
ATOM      3  C3  BNZ d   1       0.041  -1.234   0.084  0.00  0.00     0.000 A 
ATOM      4  C4  BNZ d   1       0.638  -1.745  -1.012  0.00  0.00     0.000 A 
ATOM      5  C5  BNZ d   1       1.171  -0.909  -1.973  0.00  0.00     0.000 A 
ATOM      6  C6  BNZ d   1       1.101   0.456  -1.810  0.00  0.00     0.000 A 
ENDROOT
TORSDOF 0
ENDMDL
