MODEL 1
REMARK minimizedAffinity -3.72743607
REMARK minimizedRMSD -1
REMARK  0 active torsions:
REMARK  status: ('A' for Active; 'I' for Inactive)
ROOT
ATOM      1  C1  BNZ d   1       1.088   1.061  -0.564  0.00  0.00     0.000 A 
ATOM      2  C2  BNZ d   1       1.775   0.972  -1.745  0.00  0.00     0.000 A 
ATOM      3  C3  BNZ d   1       1.547  -0.060  -2.611  0.00  0.00     0.000 A 
ATOM      4  C4  BNZ d   1       0.663  -1.023  -2.278  0.00  0.00     0.000 A 
ATOM      5  C5  BNZ d   1      -0.030  -0.953  -1.086  0.00  0.00     0.000 A 
ATOM      6  C6  BNZ d   1       0.173   0.109  -0.234  0.00  0.00     0.000 A 
ENDROOT
TORSDOF 0
ENDMDL
