MODEL 1
REMARK minimizedAffinity -4.62307119
REMARK minimizedRMSD -1
REMARK  0 active torsions:
REMARK  status: ('A' for Active; 'I' for Inactive)
ROOT
ATOM      1  C1  BNZ d   1       1.025   1.222  -0.810  0.00  0.00     0.000 A 
ATOM      2  C2  BNZ d   1       0.240   0.230  -0.286  0.00  0.00     0.000 A 
ATOM      3  C3  BNZ d   1       0.296  -1.042  -0.783  0.00  0.00     0.000 A 
ATOM      4  C4  BNZ d   1       1.105  -1.311  -1.828  0.00  0.00     0.000 A 
ATOM      5  C5  BNZ d   1       1.896  -0.319  -2.373  0.00  0.00     0.000 A 
ATOM      6  C6  BNZ d   1       1.866   0.952  -1.845  0.00  0.00     0.000 A 
ENDROOT
TORSDOF 0
ENDMDL
