MODEL 1
REMARK minimizedAffinity -2.33766699
REMARK minimizedRMSD -1
REMARK  0 active torsions:
REMARK  status: ('A' for Active; 'I' for Inactive)
ROOT
ATOM      1  C1  BNZ d   1       2.436   0.981  -1.826  0.00  0.00     0.000 A 
ATOM      2  C2  BNZ d   1       1.860   0.586  -3.003  0.00  0.00     0.000 A 
ATOM      3  C3  BNZ d   1       0.559   0.170  -3.041  0.00  0.00     0.000 A 
ATOM      4  C4  BNZ d   1      -0.152   0.111  -1.896  0.00  0.00     0.000 A 
ATOM      5  C5  BNZ d   1       0.418   0.497  -0.699  0.00  0.00     0.000 A 
ATOM      6  C6  BNZ d   1       1.716   0.952  -0.671  0.00  0.00     0.000 A 
ENDROOT
TORSDOF 0
ENDMDL
