MODEL 1
REMARK minimizedAffinity -1.72443128
REMARK minimizedRMSD -1
REMARK  0 active torsions:
REMARK  status: ('A' for Active; 'I' for Inactive)
ROOT
ATOM      1  C1  BNZ d   1      -0.515  -0.573  -0.051  0.00  0.00     0.000 A 
ATOM      2  C2  BNZ d   1       0.850  -0.671  -0.103  0.00  0.00     0.000 A 
ATOM      3  C3  BNZ d   1       1.595   0.265  -0.764  0.00  0.00     0.000 A 
ATOM      4  C4  BNZ d   1       0.972   1.275  -1.406  0.00  0.00     0.000 A 
ATOM      5  C5  BNZ d   1      -0.404   1.383  -1.371  0.00  0.00     0.000 A 
ATOM      6  C6  BNZ d   1      -1.148   0.460  -0.672  0.00  0.00     0.000 A 
ENDROOT
TORSDOF 0
ENDMDL
