MODEL 1
REMARK minimizedAffinity -3.9404695
REMARK minimizedRMSD -1
REMARK  0 active torsions:
REMARK  status: ('A' for Active; 'I' for Inactive)
ROOT
ATOM      1  C1  BNZ d   1      -0.028   0.481   0.859  0.00  0.00     0.000 A 
ATOM      2  C2  BNZ d   1       0.841   1.006   1.777  0.00  0.00     0.000 A 
ATOM      3  C3  BNZ d   1       0.458   1.195   3.075  0.00  0.00     0.000 A 
ATOM      4  C4  BNZ d   1      -0.805   0.898   3.444  0.00  0.00     0.000 A 
ATOM      5  C5  BNZ d   1      -1.697   0.377   2.527  0.00  0.00     0.000 A 
ATOM      6  C6  BNZ d   1      -1.295   0.152   1.230  0.00  0.00     0.000 A 
ENDROOT
TORSDOF 0
ENDMDL
