MODEL 1
REMARK minimizedAffinity -1.51368618
REMARK minimizedRMSD -1
REMARK  0 active torsions:
REMARK  status: ('A' for Active; 'I' for Inactive)
ROOT
ATOM      1  C1  BNZ d   1      -3.761  -2.650  -5.801  0.00  0.00     0.000 A 
ATOM      2  C2  BNZ d   1      -4.128  -2.277  -4.535  0.00  0.00     0.000 A 
ATOM      3  C3  BNZ d   1      -3.715  -2.992  -3.447  0.00  0.00     0.000 A 
ATOM      4  C4  BNZ d   1      -2.969  -4.101  -3.627  0.00  0.00     0.000 A 
ATOM      5  C5  BNZ d   1      -2.598  -4.496  -4.896  0.00  0.00     0.000 A 
ATOM      6  C6  BNZ d   1      -2.983  -3.751  -5.987  0.00  0.00     0.000 A 
ENDROOT
TORSDOF 0
ENDMDL
