MODEL 1
REMARK minimizedAffinity -0.613871396
REMARK minimizedRMSD -1
REMARK  0 active torsions:
REMARK  status: ('A' for Active; 'I' for Inactive)
ROOT
ATOM      1  C1  BNZ d   1      -1.072   1.558   2.054  0.00  0.00     0.000 A 
ATOM      2  C2  BNZ d   1      -2.261   2.229   1.954  0.00  0.00     0.000 A 
ATOM      3  C3  BNZ d   1      -3.181   2.177   2.964  0.00  0.00     0.000 A 
ATOM      4  C4  BNZ d   1      -2.927   1.424   4.054  0.00  0.00     0.000 A 
ATOM      5  C5  BNZ d   1      -1.737   0.735   4.165  0.00  0.00     0.000 A 
ATOM      6  C6  BNZ d   1      -0.797   0.820   3.164  0.00  0.00     0.000 A 
ENDROOT
TORSDOF 0
ENDMDL
