MODEL 1
REMARK minimizedAffinity -1.28724802
REMARK minimizedRMSD -1
REMARK  0 active torsions:
REMARK  status: ('A' for Active; 'I' for Inactive)
ROOT
ATOM      1  C1  BNZ d   1      -3.057   4.417  -5.624  0.00  0.00     0.000 A 
ATOM      2  C2  BNZ d   1      -2.988   3.094  -5.279  0.00  0.00     0.000 A 
ATOM      3  C3  BNZ d   1      -4.102   2.302  -5.316  0.00  0.00     0.000 A 
ATOM      4  C4  BNZ d   1      -5.289   2.844  -5.657  0.00  0.00     0.000 A 
ATOM      5  C5  BNZ d   1      -5.376   4.178  -5.999  0.00  0.00     0.000 A 
ATOM      6  C6  BNZ d   1      -4.246   4.963  -5.999  0.00  0.00     0.000 A 
ENDROOT
TORSDOF 0
ENDMDL
