MODEL 1
REMARK minimizedAffinity -3.91073608
REMARK minimizedRMSD -1
REMARK  0 active torsions:
REMARK  status: ('A' for Active; 'I' for Inactive)
ROOT
ATOM      1  C   UNL d   1      -1.416   2.910   0.767  0.00  0.00     0.172 C 
ATOM      2  N   UNL d   1      -1.064   1.523   0.957  0.00  0.00    -0.070 N 
ATOM      3  C1  UNL d   1      -0.758   0.633  -0.037  0.00  0.00    -0.004 A 
ATOM      4  C2  UNL d   1      -0.480  -0.581   0.553  0.00  0.00    -0.047 A 
ATOM      5  C3  UNL d   1      -0.626  -0.415   1.951  0.00  0.00    -0.047 A 
ATOM      6  C4  UNL d   1      -0.988   0.896   2.173  0.00  0.00    -0.004 A 
ENDROOT
TORSDOF 0
ENDMDL
