MODEL 1
REMARK minimizedAffinity -3.39369655
REMARK minimizedRMSD -1
REMARK  0 active torsions:
REMARK  status: ('A' for Active; 'I' for Inactive)
ROOT
ATOM      1  C   UNL d   1       0.483  -1.108  -0.834  0.00  0.00     0.172 C 
ATOM      2  N   UNL d   1      -0.316  -0.264   0.023  0.00  0.00    -0.070 N 
ATOM      3  C1  UNL d   1      -1.082  -0.691   1.075  0.00  0.00    -0.004 A 
ATOM      4  C2  UNL d   1      -1.684   0.415   1.635  0.00  0.00    -0.047 A 
ATOM      5  C3  UNL d   1      -1.266   1.546   0.894  0.00  0.00    -0.047 A 
ATOM      6  C4  UNL d   1      -0.419   1.097  -0.098  0.00  0.00    -0.004 A 
ENDROOT
TORSDOF 0
ENDMDL
