MODEL 1
REMARK minimizedAffinity -3.40955257
REMARK minimizedRMSD -1
REMARK  0 active torsions:
REMARK  status: ('A' for Active; 'I' for Inactive)
ROOT
ATOM      1  C   UNL d   1      -1.470   2.355   1.473  0.00  0.00     0.172 C 
ATOM      2  N   UNL d   1      -0.963   1.033   1.188  0.00  0.00    -0.070 N 
ATOM      3  C1  UNL d   1      -0.712   0.526  -0.059  0.00  0.00    -0.004 A 
ATOM      4  C2  UNL d   1      -0.241  -0.760   0.095  0.00  0.00    -0.047 A 
ATOM      5  C3  UNL d   1      -0.209  -1.036   1.482  0.00  0.00    -0.047 A 
ATOM      6  C4  UNL d   1      -0.662   0.091   2.136  0.00  0.00    -0.004 A 
ENDROOT
TORSDOF 0
ENDMDL
