MODEL 1
REMARK minimizedAffinity -2.11073041
REMARK minimizedRMSD -1
REMARK  0 active torsions:
REMARK  status: ('A' for Active; 'I' for Inactive)
ROOT
ATOM      1  C   UNL d   1       0.896  -0.542  -0.125  0.00  0.00     0.172 C 
ATOM      2  N   UNL d   1      -0.095   0.237   0.580  0.00  0.00    -0.070 N 
ATOM      3  C1  UNL d   1      -0.777   1.310   0.072  0.00  0.00    -0.004 A 
ATOM      4  C2  UNL d   1      -1.627   1.773   1.053  0.00  0.00    -0.047 A 
ATOM      5  C3  UNL d   1      -1.448   0.951   2.191  0.00  0.00    -0.047 A 
ATOM      6  C4  UNL d   1      -0.494   0.008   1.871  0.00  0.00    -0.004 A 
ENDROOT
TORSDOF 0
ENDMDL
