MODEL 1
REMARK minimizedAffinity -3.34944344
REMARK minimizedRMSD -1
REMARK  0 active torsions:
REMARK  status: ('A' for Active; 'I' for Inactive)
ROOT
ATOM      1  C   UNL d   1      -1.419   1.527   1.575  0.00  0.00     0.172 C 
ATOM      2  N   UNL d   1      -0.702   0.445   0.943  0.00  0.00    -0.070 N 
ATOM      3  C1  UNL d   1      -0.401  -0.759   1.523  0.00  0.00    -0.004 A 
ATOM      4  C2  UNL d   1       0.286  -1.513   0.596  0.00  0.00    -0.047 A 
ATOM      5  C3  UNL d   1       0.402  -0.736  -0.581  0.00  0.00    -0.047 A 
ATOM      6  C4  UNL d   1      -0.218   0.471  -0.338  0.00  0.00    -0.004 A 
ENDROOT
TORSDOF 0
ENDMDL
