MODEL 1
REMARK minimizedAffinity -0.701764703
REMARK minimizedRMSD -1
REMARK  0 active torsions:
REMARK  status: ('A' for Active; 'I' for Inactive)
ROOT
ATOM      1  C   UNL d   1      -1.764   1.909   1.525  0.00  0.00     0.172 C 
ATOM      2  N   UNL d   1      -0.744   1.239   0.752  0.00  0.00    -0.070 N 
ATOM      3  C1  UNL d   1      -0.068   0.110   1.130  0.00  0.00    -0.004 A 
ATOM      4  C2  UNL d   1       0.815  -0.211   0.122  0.00  0.00    -0.047 A 
ATOM      5  C3  UNL d   1       0.666   0.760  -0.897  0.00  0.00    -0.047 A 
ATOM      6  C4  UNL d   1      -0.306   1.646  -0.481  0.00  0.00    -0.004 A 
ENDROOT
TORSDOF 0
ENDMDL
