MODEL 1
REMARK minimizedAffinity -2.42168808
REMARK minimizedRMSD -1
REMARK  0 active torsions:
REMARK  status: ('A' for Active; 'I' for Inactive)
ROOT
ATOM      1  C   UNL d   1      -1.173   0.193   1.500  0.00  0.00     0.172 C 
ATOM      2  N   UNL d   1      -0.298   0.144   0.352  0.00  0.00    -0.070 N 
ATOM      3  C1  UNL d   1       0.128   1.224  -0.374  0.00  0.00    -0.004 A 
ATOM      4  C2  UNL d   1       0.944   0.760  -1.382  0.00  0.00    -0.047 A 
ATOM      5  C3  UNL d   1       1.010  -0.649  -1.259  0.00  0.00    -0.047 A 
ATOM      6  C4  UNL d   1       0.232  -1.003  -0.177  0.00  0.00    -0.004 A 
ENDROOT
TORSDOF 0
ENDMDL
