MODEL 1
REMARK minimizedAffinity -1.89866889
REMARK minimizedRMSD -1
REMARK  0 active torsions:
REMARK  status: ('A' for Active; 'I' for Inactive)
ROOT
ATOM      1  C   UNL d   1       0.393  -0.771  -0.017  0.00  0.00     0.172 C 
ATOM      2  N   UNL d   1       0.618  -1.855  -0.943  0.00  0.00    -0.070 N 
ATOM      3  C1  UNL d   1      -0.123  -2.113  -2.066  0.00  0.00    -0.004 A 
ATOM      4  C2  UNL d   1       0.410  -3.227  -2.677  0.00  0.00    -0.047 A 
ATOM      5  C3  UNL d   1       1.509  -3.655  -1.894  0.00  0.00    -0.047 A 
ATOM      6  C4  UNL d   1       1.615  -2.788  -0.827  0.00  0.00    -0.004 A 
ENDROOT
TORSDOF 0
ENDMDL
