MODEL 1
REMARK minimizedAffinity -3.45138812
REMARK minimizedRMSD -1
REMARK  0 active torsions:
REMARK  status: ('A' for Active; 'I' for Inactive)
ROOT
ATOM      1  C   UNL d   1       0.339  -1.516  -0.973  0.00  0.00     0.172 C 
ATOM      2  N   UNL d   1      -0.333  -0.474  -0.232  0.00  0.00    -0.070 N 
ATOM      3  C1  UNL d   1      -1.372   0.289  -0.693  0.00  0.00    -0.004 A 
ATOM      4  C2  UNL d   1      -1.730   1.164   0.310  0.00  0.00    -0.047 A 
ATOM      5  C3  UNL d   1      -0.876   0.919   1.411  0.00  0.00    -0.047 A 
ATOM      6  C4  UNL d   1      -0.021  -0.100   1.048  0.00  0.00    -0.004 A 
ENDROOT
TORSDOF 0
ENDMDL
