MODEL 1
REMARK minimizedAffinity -3.69145799
REMARK minimizedRMSD -1
REMARK  0 active torsions:
REMARK  status: ('A' for Active; 'I' for Inactive)
ROOT
ATOM      1  C   UNL d   1       1.066  -0.430   0.006  0.00  0.00     0.172 C 
ATOM      2  N   UNL d   1       0.010   0.326   0.637  0.00  0.00    -0.070 N 
ATOM      3  C1  UNL d   1      -0.846  -0.145   1.596  0.00  0.00    -0.004 A 
ATOM      4  C2  UNL d   1      -1.702   0.879   1.938  0.00  0.00    -0.047 A 
ATOM      5  C3  UNL d   1      -1.350   2.005   1.156  0.00  0.00    -0.047 A 
ATOM      6  C4  UNL d   1      -0.287   1.635   0.360  0.00  0.00    -0.004 A 
ENDROOT
TORSDOF 0
ENDMDL
