MODEL 1
REMARK minimizedAffinity -1.78341711
REMARK minimizedRMSD -1
REMARK  0 active torsions:
REMARK  status: ('A' for Active; 'I' for Inactive)
ROOT
ATOM      1  C   UNL d   1       0.996  -2.359  -1.005  0.00  0.00     0.172 C 
ATOM      2  N   UNL d   1       0.509  -1.271  -0.191  0.00  0.00    -0.070 N 
ATOM      3  C1  UNL d   1      -0.456  -1.367   0.776  0.00  0.00    -0.004 A 
ATOM      4  C2  UNL d   1      -0.634  -0.113   1.321  0.00  0.00    -0.047 A 
ATOM      5  C3  UNL d   1       0.254   0.766   0.658  0.00  0.00    -0.047 A 
ATOM      6  C4  UNL d   1       0.950   0.024  -0.273  0.00  0.00    -0.004 A 
ENDROOT
TORSDOF 0
ENDMDL
