MODEL 1
REMARK minimizedAffinity -2.45906925
REMARK minimizedRMSD -1
REMARK  0 active torsions:
REMARK  status: ('A' for Active; 'I' for Inactive)
ROOT
ATOM      1  C   UNL d   1       0.673  -0.070  -0.388  0.00  0.00     0.172 C 
ATOM      2  N   UNL d   1       0.041   1.021   0.315  0.00  0.00    -0.070 N 
ATOM      3  C1  UNL d   1       0.016   2.327  -0.095  0.00  0.00    -0.004 A 
ATOM      4  C2  UNL d   1      -0.682   3.052   0.846  0.00  0.00    -0.047 A 
ATOM      5  C3  UNL d   1      -1.090   2.150   1.858  0.00  0.00    -0.047 A 
ATOM      6  C4  UNL d   1      -0.630   0.900   1.503  0.00  0.00    -0.004 A 
ENDROOT
TORSDOF 0
ENDMDL
