MODEL 1
REMARK minimizedAffinity -3.94641209
REMARK minimizedRMSD -1
REMARK  0 active torsions:
REMARK  status: ('A' for Active; 'I' for Inactive)
ROOT
ATOM      1  C   UNL d   1      -0.628   0.219  -0.267  0.00  0.00     0.172 C 
ATOM      2  N   UNL d   1      -0.786   1.654  -0.287  0.00  0.00    -0.070 N 
ATOM      3  C1  UNL d   1      -1.423   2.400   0.669  0.00  0.00    -0.004 A 
ATOM      4  C2  UNL d   1      -1.358   3.722   0.285  0.00  0.00    -0.047 A 
ATOM      5  C3  UNL d   1      -0.660   3.772  -0.945  0.00  0.00    -0.047 A 
ATOM      6  C4  UNL d   1      -0.317   2.478  -1.275  0.00  0.00    -0.004 A 
ENDROOT
TORSDOF 0
ENDMDL
