MODEL 1
REMARK minimizedAffinity -3.01763988
REMARK minimizedRMSD -1
REMARK  0 active torsions:
REMARK  status: ('A' for Active; 'I' for Inactive)
ROOT
ATOM      1  C   UNL d   1      -0.649   0.058   0.859  0.00  0.00     0.172 C 
ATOM      2  N   UNL d   1       0.052  -0.803  -0.064  0.00  0.00    -0.070 N 
ATOM      3  C1  UNL d   1      -0.526  -1.738  -0.880  0.00  0.00    -0.004 A 
ATOM      4  C2  UNL d   1       0.478  -2.345  -1.604  0.00  0.00    -0.047 A 
ATOM      5  C3  UNL d   1       1.701  -1.755  -1.208  0.00  0.00    -0.047 A 
ATOM      6  C4  UNL d   1       1.409  -0.803  -0.254  0.00  0.00    -0.004 A 
ENDROOT
TORSDOF 0
ENDMDL
