MODEL 1
REMARK minimizedAffinity -2.36354804
REMARK minimizedRMSD -1
REMARK  0 active torsions:
REMARK  status: ('A' for Active; 'I' for Inactive)
ROOT
ATOM      1  C   UNL d   1       0.403   1.571  -0.980  0.00  0.00     0.172 C 
ATOM      2  N   UNL d   1      -0.276   0.928   0.120  0.00  0.00    -0.070 N 
ATOM      3  C1  UNL d   1      -0.360  -0.424   0.326  0.00  0.00    -0.004 A 
ATOM      4  C2  UNL d   1      -1.087  -0.630   1.478  0.00  0.00    -0.047 A 
ATOM      5  C3  UNL d   1      -1.453   0.641   1.982  0.00  0.00    -0.047 A 
ATOM      6  C4  UNL d   1      -0.938   1.587   1.121  0.00  0.00    -0.004 A 
ENDROOT
TORSDOF 0
ENDMDL
