MODEL 1
REMARK minimizedAffinity 7.34071064
REMARK minimizedRMSD -1
REMARK  1 active torsions:
REMARK  status: ('A' for Active; 'I' for Inactive)
REMARK    1  A    between atoms: C1_2  and  C2_3 
ROOT
ATOM      1  C2  UNL d   1       4.567   3.298   2.329  0.00  0.00    -0.076 A 
ATOM      2  C3  UNL d   1       5.587   3.550   3.263  0.00  0.00     0.004 A 
ATOM      3  C4  UNL d   1       5.997   4.852   3.544  0.00  0.00    -0.003 A 
ATOM      4  C5  UNL d   1       5.394   5.924   2.895  0.00  0.00     0.000 A 
ATOM      5  C6  UNL d   1       4.368   5.694   1.978  0.00  0.00     0.000 A 
ATOM      6  C7  UNL d   1       3.931   4.388   1.696  0.00  0.00    -0.073 A 
ATOM      7  C8  UNL d   1       2.826   4.197   0.695  0.00  0.00     0.078 C 
ENDROOT
BRANCH   1   8
ATOM      8  C1  UNL d   1       4.182   1.864   2.045  0.00  0.00     0.053 C 
ATOM      9  C   UNL d   1       3.611   1.161   3.267  0.00  0.00     0.018 C 
ENDBRANCH   1   8
TORSDOF 1
ENDMDL
