MODEL 1
REMARK minimizedAffinity 24.0559998
REMARK minimizedRMSD -1
REMARK  1 active torsions:
REMARK  status: ('A' for Active; 'I' for Inactive)
REMARK    1  A    between atoms: C1_2  and  C2_3 
ROOT
ATOM      1  C2  UNL d   1       3.686   0.283  -5.267  0.00  0.00    -0.076 A 
ATOM      2  C3  UNL d   1       3.329   1.642  -5.218  0.00  0.00     0.004 A 
ATOM      3  C4  UNL d   1       4.249   2.637  -5.545  0.00  0.00    -0.003 A 
ATOM      4  C5  UNL d   1       5.540   2.289  -5.927  0.00  0.00     0.000 A 
ATOM      5  C6  UNL d   1       5.906   0.945  -5.998  0.00  0.00     0.000 A 
ATOM      6  C7  UNL d   1       4.986  -0.071  -5.688  0.00  0.00    -0.073 A 
ATOM      7  C8  UNL d   1       5.436  -1.504  -5.776  0.00  0.00     0.078 C 
ENDROOT
BRANCH   1   8
ATOM      8  C1  UNL d   1       2.654  -0.751  -4.876  0.00  0.00     0.053 C 
ATOM      9  C   UNL d   1       1.230  -0.267  -5.098  0.00  0.00     0.018 C 
ENDBRANCH   1   8
TORSDOF 1
ENDMDL
