MODEL 1
REMARK minimizedAffinity 23.4251995
REMARK minimizedRMSD -1
REMARK  1 active torsions:
REMARK  status: ('A' for Active; 'I' for Inactive)
REMARK    1  A    between atoms: C1_2  and  C2_3 
ROOT
ATOM      1  C2  UNL d   1      -0.347  -3.787  -5.485  0.00  0.00    -0.076 A 
ATOM      2  C3  UNL d   1      -1.718  -3.489  -5.567  0.00  0.00     0.004 A 
ATOM      3  C4  UNL d   1      -2.680  -4.435  -5.215  0.00  0.00    -0.003 A 
ATOM      4  C5  UNL d   1      -2.286  -5.693  -4.773  0.00  0.00     0.000 A 
ATOM      5  C6  UNL d   1      -0.929  -5.999  -4.669  0.00  0.00     0.000 A 
ATOM      6  C7  UNL d   1       0.053  -5.052  -5.005  0.00  0.00    -0.073 A 
ATOM      7  C8  UNL d   1       1.501  -5.438  -4.879  0.00  0.00     0.078 C 
ENDROOT
BRANCH   1   8
ATOM      8  C1  UNL d   1       0.650  -2.731  -5.906  0.00  0.00     0.053 C 
ATOM      9  C   UNL d   1       0.457  -1.418  -5.164  0.00  0.00     0.018 C 
ENDBRANCH   1   8
TORSDOF 1
ENDMDL
