MODEL 1
REMARK minimizedAffinity 15.1929817
REMARK minimizedRMSD -1
REMARK  1 active torsions:
REMARK  status: ('A' for Active; 'I' for Inactive)
REMARK    1  A    between atoms: C1_2  and  C2_3 
ROOT
ATOM      1  C2  UNL d   1      -1.596  -0.774   0.876  0.00  0.00    -0.076 A 
ATOM      2  C3  UNL d   1      -0.300  -1.175   1.245  0.00  0.00     0.004 A 
ATOM      3  C4  UNL d   1       0.503  -0.362   2.044  0.00  0.00    -0.003 A 
ATOM      4  C5  UNL d   1       0.022   0.865   2.488  0.00  0.00     0.000 A 
ATOM      5  C6  UNL d   1      -1.268   1.270   2.147  0.00  0.00     0.000 A 
ATOM      6  C7  UNL d   1      -2.096   0.455   1.356  0.00  0.00    -0.073 A 
ATOM      7  C8  UNL d   1      -3.476   0.945   1.013  0.00  0.00     0.078 C 
ENDROOT
BRANCH   1   8
ATOM      8  C1  UNL d   1      -2.410  -1.685  -0.014  0.00  0.00     0.053 C 
ATOM      9  C   UNL d   1      -1.901  -1.705  -1.448  0.00  0.00     0.018 C 
ENDBRANCH   1   8
TORSDOF 1
ENDMDL
