MODEL 1
REMARK minimizedAffinity 14.0121555
REMARK minimizedRMSD -1
REMARK  1 active torsions:
REMARK  status: ('A' for Active; 'I' for Inactive)
REMARK    1  A    between atoms: C1_2  and  C2_3 
ROOT
ATOM      1  C2  UNL d   1       2.365   1.455   5.194  0.00  0.00    -0.076 A 
ATOM      2  C3  UNL d   1       3.754   1.488   4.982  0.00  0.00     0.004 A 
ATOM      3  C4  UNL d   1       4.496   2.633   5.265  0.00  0.00    -0.003 A 
ATOM      4  C5  UNL d   1       3.861   3.764   5.766  0.00  0.00     0.000 A 
ATOM      5  C6  UNL d   1       2.486   3.744   6.000  0.00  0.00     0.000 A 
ATOM      6  C7  UNL d   1       1.726   2.592   5.735  0.00  0.00    -0.073 A 
ATOM      7  C8  UNL d   1       0.246   2.627   6.000  0.00  0.00     0.078 C 
ENDROOT
BRANCH   1   8
ATOM      8  C1  UNL d   1       1.608   0.194   4.843  0.00  0.00     0.053 C 
ATOM      9  C   UNL d   1       1.270   0.111   3.362  0.00  0.00     0.018 C 
ENDBRANCH   1   8
TORSDOF 1
ENDMDL
