MODEL 1
REMARK minimizedAffinity 5.16108799
REMARK minimizedRMSD -1
REMARK  1 active torsions:
REMARK  status: ('A' for Active; 'I' for Inactive)
REMARK    1  A    between atoms: C1_2  and  C2_3 
ROOT
ATOM      1  C2  UNL d   1       5.178   3.730   3.396  0.00  0.00    -0.076 A 
ATOM      2  C3  UNL d   1       4.518   3.258   2.248  0.00  0.00     0.004 A 
ATOM      3  C4  UNL d   1       3.952   4.143   1.331  0.00  0.00    -0.003 A 
ATOM      4  C5  UNL d   1       4.040   5.514   1.546  0.00  0.00     0.000 A 
ATOM      5  C6  UNL d   1       4.707   6.000   2.670  0.00  0.00     0.000 A 
ATOM      6  C7  UNL d   1       5.296   5.122   3.596  0.00  0.00    -0.073 A 
ATOM      7  C8  UNL d   1       5.998   5.701   4.794  0.00  0.00     0.078 C 
ENDROOT
BRANCH   1   8
ATOM      8  C1  UNL d   1       5.748   2.723   4.369  0.00  0.00     0.053 C 
ATOM      9  C   UNL d   1       5.216   1.318   4.131  0.00  0.00     0.018 C 
ENDBRANCH   1   8
TORSDOF 1
ENDMDL
