MODEL 1
REMARK minimizedAffinity -4.05337906
REMARK minimizedRMSD -1
REMARK  2 active torsions:
REMARK  status: ('A' for Active; 'I' for Inactive)
REMARK    1  A    between atoms: C1_2  and  C2_3 
REMARK    2  A    between atoms: C2_3  and  C3_4 
ROOT
ATOM      1  C3  UNL d   1       0.019  -0.275  -0.887  0.00  0.00    -0.075 A 
ATOM      2  C4  UNL d   1       1.206  -1.003  -0.719  0.00  0.00     0.002 A 
ATOM      3  C5  UNL d   1       1.649  -1.351   0.557  0.00  0.00     0.002 A 
ATOM      4  C6  UNL d   1       0.920  -0.967   1.680  0.00  0.00    -0.004 A 
ATOM      5  C7  UNL d   1      -0.252  -0.229   1.526  0.00  0.00     0.002 A 
ATOM      6  C8  UNL d   1      -0.701   0.116   0.250  0.00  0.00     0.002 A 
ENDROOT
BRANCH   1   7
ATOM      7  C2  UNL d   1      -0.482   0.079  -2.267  0.00  0.00     0.056 C 
BRANCH   7   8
ATOM      8  C1  UNL d   1      -0.938   1.535  -2.410  0.00  0.00     0.007 C 
ATOM      9  C   UNL d   1      -0.016   2.369  -3.288  0.00  0.00     0.009 C 
ENDBRANCH   7   8
ENDBRANCH   1   7
TORSDOF 2
ENDMDL
