MODEL 1
REMARK minimizedAffinity -3.16986084
REMARK minimizedRMSD -1
REMARK  2 active torsions:
REMARK  status: ('A' for Active; 'I' for Inactive)
REMARK    1  A    between atoms: C1_2  and  C2_3 
REMARK    2  A    between atoms: C2_3  and  C3_4 
ROOT
ATOM      1  C3  UNL d   1      -0.675   0.638  -1.544  0.00  0.00    -0.075 A 
ATOM      2  C4  UNL d   1       0.347   0.932  -2.458  0.00  0.00     0.002 A 
ATOM      3  C5  UNL d   1       0.241   2.032  -3.309  0.00  0.00     0.002 A 
ATOM      4  C6  UNL d   1      -0.889   2.845  -3.264  0.00  0.00    -0.004 A 
ATOM      5  C7  UNL d   1      -1.918   2.553  -2.371  0.00  0.00     0.002 A 
ATOM      6  C8  UNL d   1      -1.812   1.455  -1.515  0.00  0.00     0.002 A 
ENDROOT
BRANCH   1   7
ATOM      7  C2  UNL d   1      -0.553  -0.534  -0.600  0.00  0.00     0.056 C 
BRANCH   7   8
ATOM      8  C1  UNL d   1      -1.290  -0.343   0.730  0.00  0.00     0.007 C 
ATOM      9  C   UNL d   1      -0.435  -0.683   1.944  0.00  0.00     0.009 C 
ENDBRANCH   7   8
ENDBRANCH   1   7
TORSDOF 2
ENDMDL
