MODEL 1
REMARK minimizedAffinity -2.59484768
REMARK minimizedRMSD -1
REMARK  2 active torsions:
REMARK  status: ('A' for Active; 'I' for Inactive)
REMARK    1  A    between atoms: C1_2  and  C2_3 
REMARK    2  A    between atoms: C2_3  and  C3_4 
ROOT
ATOM      1  C3  UNL d   1      -0.462   0.251   0.032  0.00  0.00    -0.075 A 
ATOM      2  C4  UNL d   1      -1.397   0.987   0.774  0.00  0.00     0.002 A 
ATOM      3  C5  UNL d   1      -1.527   0.786   2.149  0.00  0.00     0.002 A 
ATOM      4  C6  UNL d   1      -0.733  -0.158   2.796  0.00  0.00    -0.004 A 
ATOM      5  C7  UNL d   1       0.188  -0.907   2.066  0.00  0.00     0.002 A 
ATOM      6  C8  UNL d   1       0.323  -0.705   0.691  0.00  0.00     0.002 A 
ENDROOT
BRANCH   1   7
ATOM      7  C2  UNL d   1      -0.295   0.485  -1.450  0.00  0.00     0.056 C 
BRANCH   7   8
ATOM      8  C1  UNL d   1      -1.044   1.714  -1.976  0.00  0.00     0.007 C 
ATOM      9  C   UNL d   1      -0.165   2.645  -2.801  0.00  0.00     0.009 C 
ENDBRANCH   7   8
ENDBRANCH   1   7
TORSDOF 2
ENDMDL
