MODEL 1
REMARK minimizedAffinity -2.36441016
REMARK minimizedRMSD -1
REMARK  2 active torsions:
REMARK  status: ('A' for Active; 'I' for Inactive)
REMARK    1  A    between atoms: C1_2  and  C2_3 
REMARK    2  A    between atoms: C2_3  and  C3_4 
ROOT
ATOM      1  C3  UNL d   1      -0.753   0.505  -0.673  0.00  0.00    -0.075 A 
ATOM      2  C4  UNL d   1      -1.242   0.645   0.634  0.00  0.00     0.002 A 
ATOM      3  C5  UNL d   1      -0.707  -0.114   1.676  0.00  0.00     0.002 A 
ATOM      4  C6  UNL d   1       0.314  -1.028   1.422  0.00  0.00    -0.004 A 
ATOM      5  C7  UNL d   1       0.796  -1.187   0.125  0.00  0.00     0.002 A 
ATOM      6  C8  UNL d   1       0.265  -0.426  -0.918  0.00  0.00     0.002 A 
ENDROOT
BRANCH   1   7
ATOM      7  C2  UNL d   1      -1.308   1.344  -1.799  0.00  0.00     0.056 C 
BRANCH   7   8
ATOM      8  C1  UNL d   1      -0.530   2.639  -2.053  0.00  0.00     0.007 C 
ATOM      9  C   UNL d   1      -1.421   3.873  -2.117  0.00  0.00     0.009 C 
ENDBRANCH   7   8
ENDBRANCH   1   7
TORSDOF 2
ENDMDL
