MODEL 1
REMARK minimizedAffinity -4.5626936
REMARK minimizedRMSD -1
REMARK  2 active torsions:
REMARK  status: ('A' for Active; 'I' for Inactive)
REMARK    1  A    between atoms: C1_2  and  C2_3 
REMARK    2  A    between atoms: C2_3  and  C3_4 
ROOT
ATOM      1  C3  UNL d   1      -0.381   0.750  -1.114  0.00  0.00    -0.075 A 
ATOM      2  C4  UNL d   1      -1.525   0.600  -1.910  0.00  0.00     0.002 A 
ATOM      3  C5  UNL d   1      -1.933   1.626  -2.764  0.00  0.00     0.002 A 
ATOM      4  C6  UNL d   1      -1.209   2.815  -2.825  0.00  0.00    -0.004 A 
ATOM      5  C7  UNL d   1      -0.080   2.981  -2.026  0.00  0.00     0.002 A 
ATOM      6  C8  UNL d   1       0.333   1.955  -1.174  0.00  0.00     0.002 A 
ENDROOT
BRANCH   1   7
ATOM      7  C2  UNL d   1       0.083  -0.367  -0.209  0.00  0.00     0.056 C 
BRANCH   7   8
ATOM      8  C1  UNL d   1       0.406   0.082   1.220  0.00  0.00     0.007 C 
ATOM      9  C   UNL d   1       0.488  -1.075   2.208  0.00  0.00     0.009 C 
ENDBRANCH   7   8
ENDBRANCH   1   7
TORSDOF 2
ENDMDL
