MODEL 1
REMARK minimizedAffinity -0.684118569
REMARK minimizedRMSD -1
REMARK  2 active torsions:
REMARK  status: ('A' for Active; 'I' for Inactive)
REMARK    1  A    between atoms: C1_2  and  C2_3 
REMARK    2  A    between atoms: C2_3  and  C3_4 
ROOT
ATOM      1  C3  UNL d   1      -0.156   0.171  -0.029  0.00  0.00    -0.075 A 
ATOM      2  C4  UNL d   1       0.499  -1.024   0.303  0.00  0.00     0.002 A 
ATOM      3  C5  UNL d   1       0.320  -1.604   1.559  0.00  0.00     0.002 A 
ATOM      4  C6  UNL d   1      -0.506  -0.994   2.500  0.00  0.00    -0.004 A 
ATOM      5  C7  UNL d   1      -1.148   0.202   2.187  0.00  0.00     0.002 A 
ATOM      6  C8  UNL d   1      -0.975   0.783   0.930  0.00  0.00     0.002 A 
ENDROOT
BRANCH   1   7
ATOM      7  C2  UNL d   1       0.010   0.789  -1.397  0.00  0.00     0.056 C 
BRANCH   7   8
ATOM      8  C1  UNL d   1      -1.226   1.545  -1.894  0.00  0.00     0.007 C 
ATOM      9  C   UNL d   1      -0.893   2.887  -2.533  0.00  0.00     0.009 C 
ENDBRANCH   7   8
ENDBRANCH   1   7
TORSDOF 2
ENDMDL
