MODEL 1
REMARK minimizedAffinity -3.5281508
REMARK minimizedRMSD -1
REMARK  2 active torsions:
REMARK  status: ('A' for Active; 'I' for Inactive)
REMARK    1  A    between atoms: C1_2  and  C2_3 
REMARK    2  A    between atoms: C2_3  and  C3_4 
ROOT
ATOM      1  C3  UNL d   1      -0.349   1.110  -1.590  0.00  0.00    -0.075 A 
ATOM      2  C4  UNL d   1      -1.669   1.450  -1.919  0.00  0.00     0.002 A 
ATOM      3  C5  UNL d   1      -1.943   2.617  -2.633  0.00  0.00     0.002 A 
ATOM      4  C6  UNL d   1      -0.905   3.463  -3.017  0.00  0.00    -0.004 A 
ATOM      5  C7  UNL d   1       0.409   3.144  -2.681  0.00  0.00     0.002 A 
ATOM      6  C8  UNL d   1       0.687   1.974  -1.971  0.00  0.00     0.002 A 
ENDROOT
BRANCH   1   7
ATOM      7  C2  UNL d   1      -0.043  -0.166  -0.844  0.00  0.00     0.056 C 
BRANCH   7   8
ATOM      8  C1  UNL d   1      -0.777  -0.297   0.495  0.00  0.00     0.007 C 
ATOM      9  C   UNL d   1      -0.003  -1.106   1.527  0.00  0.00     0.009 C 
ENDBRANCH   7   8
ENDBRANCH   1   7
TORSDOF 2
ENDMDL
