MODEL 1
REMARK minimizedAffinity 11.6432314
REMARK minimizedRMSD -1
REMARK  0 active torsions:
REMARK  status: ('A' for Active; 'I' for Inactive)
ROOT
ATOM      1  C   UNL d   1       3.629   0.623   0.817  0.00  0.00    -0.002 A 
ATOM      2  C1  UNL d   1       2.426   1.133   1.283  0.00  0.00     0.010 A 
ATOM      3  C2  UNL d   1       1.495   1.679   0.397  0.00  0.00     0.041 A 
ATOM      4  C3  UNL d   1       1.797   1.703  -0.979  0.00  0.00    -0.075 A 
ATOM      5  S   UNL d   1       0.809   2.322  -2.249  0.00  0.00     0.015 SA
ATOM      6  C4  UNL d   1       1.961   1.923  -3.440  0.00  0.00     0.022 A 
ATOM      7  C5  UNL d   1       3.078   1.332  -2.900  0.00  0.00     0.026 A 
ATOM      8  C6  UNL d   1       3.002   1.195  -1.472  0.00  0.00    -0.082 A 
ATOM      9  C7  UNL d   1       3.925   0.649  -0.549  0.00  0.00     0.045 A 
ENDROOT
TORSDOF 0
ENDMDL
