MODEL 1
REMARK minimizedAffinity 22.5127182
REMARK minimizedRMSD -1
REMARK  0 active torsions:
REMARK  status: ('A' for Active; 'I' for Inactive)
ROOT
ATOM      1  C   UNL d   1       1.061   1.766   1.814  0.00  0.00    -0.002 A 
ATOM      2  C1  UNL d   1       1.179   2.648   0.749  0.00  0.00     0.010 A 
ATOM      3  C2  UNL d   1       2.108   2.414  -0.268  0.00  0.00     0.041 A 
ATOM      4  C3  UNL d   1       2.923   1.267  -0.195  0.00  0.00    -0.075 A 
ATOM      5  S   UNL d   1       4.129   0.777  -1.325  0.00  0.00     0.015 SA
ATOM      6  C4  UNL d   1       4.516  -0.615  -0.421  0.00  0.00     0.022 A 
ATOM      7  C5  UNL d   1       3.754  -0.718   0.718  0.00  0.00     0.026 A 
ATOM      8  C6  UNL d   1       2.822   0.364   0.867  0.00  0.00    -0.082 A 
ATOM      9  C7  UNL d   1       1.872   0.630   1.882  0.00  0.00     0.045 A 
ENDROOT
TORSDOF 0
ENDMDL
