MODEL 1
REMARK minimizedAffinity 17.5036488
REMARK minimizedRMSD -1
REMARK  0 active torsions:
REMARK  status: ('A' for Active; 'I' for Inactive)
ROOT
ATOM      1  C   UNL d   1      -5.913  -4.592  -3.438  0.00  0.00    -0.002 A 
ATOM      2  C1  UNL d   1      -5.735  -5.677  -2.592  0.00  0.00     0.010 A 
ATOM      3  C2  UNL d   1      -4.745  -5.656  -1.608  0.00  0.00     0.041 A 
ATOM      4  C3  UNL d   1      -3.930  -4.514  -1.486  0.00  0.00    -0.075 A 
ATOM      5  S   UNL d   1      -2.654  -4.264  -0.353  0.00  0.00     0.015 SA
ATOM      6  C4  UNL d   1      -2.315  -2.709  -0.965  0.00  0.00     0.022 A 
ATOM      7  C5  UNL d   1      -3.145  -2.374  -2.008  0.00  0.00     0.026 A 
ATOM      8  C6  UNL d   1      -4.090  -3.408  -2.325  0.00  0.00    -0.082 A 
ATOM      9  C7  UNL d   1      -5.102  -3.460  -3.314  0.00  0.00     0.045 A 
ENDROOT
TORSDOF 0
ENDMDL
