MODEL 1
REMARK minimizedAffinity 12.8211737
REMARK minimizedRMSD -1
REMARK  0 active torsions:
REMARK  status: ('A' for Active; 'I' for Inactive)
ROOT
ATOM      1  C   UNL d   1      -3.148  -2.698  -2.432  0.00  0.00    -0.002 A 
ATOM      2  C1  UNL d   1      -1.873  -2.300  -2.810  0.00  0.00     0.010 A 
ATOM      3  C2  UNL d   1      -0.841  -2.238  -1.871  0.00  0.00     0.041 A 
ATOM      4  C3  UNL d   1      -1.114  -2.587  -0.534  0.00  0.00    -0.075 A 
ATOM      5  S   UNL d   1      -0.007  -2.587   0.788  0.00  0.00     0.015 SA
ATOM      6  C4  UNL d   1      -1.200  -3.115   1.884  0.00  0.00     0.022 A 
ATOM      7  C5  UNL d   1      -2.419  -3.292   1.274  0.00  0.00     0.026 A 
ATOM      8  C6  UNL d   1      -2.390  -2.991  -0.129  0.00  0.00    -0.082 A 
ATOM      9  C7  UNL d   1      -3.415  -3.043  -1.105  0.00  0.00     0.045 A 
ENDROOT
TORSDOF 0
ENDMDL
