MODEL 1
REMARK minimizedAffinity 26.1031818
REMARK minimizedRMSD -1
REMARK  0 active torsions:
REMARK  status: ('A' for Active; 'I' for Inactive)
ROOT
ATOM      1  C   UNL d   1      -5.938  -4.332  -2.674  0.00  0.00    -0.002 A 
ATOM      2  C1  UNL d   1      -5.823  -5.420  -1.820  0.00  0.00     0.010 A 
ATOM      3  C2  UNL d   1      -4.577  -5.997  -1.569  0.00  0.00     0.041 A 
ATOM      4  C3  UNL d   1      -3.437  -5.457  -2.195  0.00  0.00    -0.075 A 
ATOM      5  S   UNL d   1      -1.808  -5.999  -2.036  0.00  0.00     0.015 SA
ATOM      6  C4  UNL d   1      -1.226  -4.800  -3.098  0.00  0.00     0.022 A 
ATOM      7  C5  UNL d   1      -2.236  -3.996  -3.572  0.00  0.00     0.026 A 
ATOM      8  C6  UNL d   1      -3.527  -4.362  -3.059  0.00  0.00    -0.082 A 
ATOM      9  C7  UNL d   1      -4.804  -3.799  -3.294  0.00  0.00     0.045 A 
ENDROOT
TORSDOF 0
ENDMDL
