MODEL 1
REMARK minimizedAffinity 7.6680727
REMARK minimizedRMSD -1
REMARK  0 active torsions:
REMARK  status: ('A' for Active; 'I' for Inactive)
ROOT
ATOM      1  C   UNL d   1      -2.040  -6.000   2.577  0.00  0.00    -0.002 A 
ATOM      2  C1  UNL d   1      -3.200  -5.968   1.816  0.00  0.00     0.010 A 
ATOM      3  C2  UNL d   1      -3.427  -4.932   0.908  0.00  0.00     0.041 A 
ATOM      4  C3  UNL d   1      -2.457  -3.919   0.775  0.00  0.00    -0.075 A 
ATOM      5  S   UNL d   1      -2.519  -2.552  -0.274  0.00  0.00     0.015 SA
ATOM      6  C4  UNL d   1      -1.007  -1.978   0.263  0.00  0.00     0.022 A 
ATOM      7  C5  UNL d   1      -0.454  -2.797   1.219  0.00  0.00     0.026 A 
ATOM      8  C6  UNL d   1      -1.280  -3.929   1.529  0.00  0.00    -0.082 A 
ATOM      9  C7  UNL d   1      -1.080  -4.993   2.442  0.00  0.00     0.045 A 
ENDROOT
TORSDOF 0
ENDMDL
