MODEL 1
REMARK minimizedAffinity 24.5434227
REMARK minimizedRMSD -1
REMARK  0 active torsions:
REMARK  status: ('A' for Active; 'I' for Inactive)
ROOT
ATOM      1  C   UNL d   1      -2.648  -3.995  -1.498  0.00  0.00    -0.002 A 
ATOM      2  C1  UNL d   1      -2.634  -2.609  -1.420  0.00  0.00     0.010 A 
ATOM      3  C2  UNL d   1      -2.286  -1.839  -2.531  0.00  0.00     0.041 A 
ATOM      4  C3  UNL d   1      -1.951  -2.491  -3.735  0.00  0.00    -0.075 A 
ATOM      5  S   UNL d   1      -1.494  -1.752  -5.224  0.00  0.00     0.015 SA
ATOM      6  C4  UNL d   1      -1.307  -3.259  -5.999  0.00  0.00     0.022 A 
ATOM      7  C5  UNL d   1      -1.582  -4.310  -5.157  0.00  0.00     0.026 A 
ATOM      8  C6  UNL d   1      -1.958  -3.884  -3.838  0.00  0.00    -0.082 A 
ATOM      9  C7  UNL d   1      -2.314  -4.638  -2.693  0.00  0.00     0.045 A 
ENDROOT
TORSDOF 0
ENDMDL
