MODEL 1
REMARK minimizedAffinity 15.4866638
REMARK minimizedRMSD -1
REMARK  0 active torsions:
REMARK  status: ('A' for Active; 'I' for Inactive)
ROOT
ATOM      1  C   UNL d   1      -1.142  -3.163   1.695  0.00  0.00    -0.002 A 
ATOM      2  C1  UNL d   1      -2.353  -3.825   1.841  0.00  0.00     0.010 A 
ATOM      3  C2  UNL d   1      -3.273  -3.863   0.792  0.00  0.00     0.041 A 
ATOM      4  C3  UNL d   1      -2.951  -3.221  -0.420  0.00  0.00    -0.075 A 
ATOM      5  S   UNL d   1      -3.923  -3.138  -1.842  0.00  0.00     0.015 SA
ATOM      6  C4  UNL d   1      -2.753  -2.223  -2.678  0.00  0.00     0.022 A 
ATOM      7  C5  UNL d   1      -1.642  -1.978  -1.906  0.00  0.00     0.026 A 
ATOM      8  C6  UNL d   1      -1.738  -2.549  -0.593  0.00  0.00    -0.082 A 
ATOM      9  C7  UNL d   1      -0.826  -2.527   0.491  0.00  0.00     0.045 A 
ENDROOT
TORSDOF 0
ENDMDL
