MODEL 1
REMARK minimizedAffinity 2.74627972
REMARK minimizedRMSD -1
REMARK  0 active torsions:
REMARK  status: ('A' for Active; 'I' for Inactive)
ROOT
ATOM      1  C   UNL d   1      -1.530   5.444  -1.813  0.00  0.00    -0.002 A 
ATOM      2  C1  UNL d   1      -2.115   5.816  -3.016  0.00  0.00     0.010 A 
ATOM      3  C2  UNL d   1      -3.496   5.999  -3.107  0.00  0.00     0.041 A 
ATOM      4  C3  UNL d   1      -4.287   5.803  -1.959  0.00  0.00    -0.075 A 
ATOM      5  S   UNL d   1      -5.998   5.971  -1.834  0.00  0.00     0.015 SA
ATOM      6  C4  UNL d   1      -5.994   5.554  -0.182  0.00  0.00     0.022 A 
ATOM      7  C5  UNL d   1      -4.726   5.290   0.280  0.00  0.00     0.026 A 
ATOM      8  C6  UNL d   1      -3.722   5.429  -0.736  0.00  0.00    -0.082 A 
ATOM      9  C7  UNL d   1      -2.319   5.250  -0.676  0.00  0.00     0.045 A 
ENDROOT
TORSDOF 0
ENDMDL
