MODEL 1
REMARK minimizedAffinity 5.05216885
REMARK minimizedRMSD -1
REMARK  0 active torsions:
REMARK  status: ('A' for Active; 'I' for Inactive)
ROOT
ATOM      1  C   UNL d   1       1.562   0.921   2.743  0.00  0.00    -0.002 A 
ATOM      2  C1  UNL d   1       2.539   0.127   3.327  0.00  0.00     0.010 A 
ATOM      3  C2  UNL d   1       3.620  -0.337   2.575  0.00  0.00     0.041 A 
ATOM      4  C3  UNL d   1       3.705   0.017   1.214  0.00  0.00    -0.075 A 
ATOM      5  S   UNL d   1       4.940  -0.434   0.098  0.00  0.00     0.015 SA
ATOM      6  C4  UNL d   1       4.200   0.417  -1.179  0.00  0.00     0.022 A 
ATOM      7  C5  UNL d   1       3.038   1.036  -0.782  0.00  0.00     0.026 A 
ATOM      8  C6  UNL d   1       2.734   0.816   0.604  0.00  0.00    -0.082 A 
ATOM      9  C7  UNL d   1       1.649   1.269   1.392  0.00  0.00     0.045 A 
ENDROOT
TORSDOF 0
ENDMDL
