MODEL 1
REMARK minimizedAffinity 21.6798019
REMARK minimizedRMSD -1
REMARK  0 active torsions:
REMARK  status: ('A' for Active; 'I' for Inactive)
ROOT
ATOM      1  C   UNL d   1       5.844   4.225  -4.261  0.00  0.00    -0.002 A 
ATOM      2  C1  UNL d   1       5.982   5.372  -5.031  0.00  0.00     0.010 A 
ATOM      3  C2  UNL d   1       4.865   5.979  -5.606  0.00  0.00     0.041 A 
ATOM      4  C3  UNL d   1       3.594   5.411  -5.392  0.00  0.00    -0.075 A 
ATOM      5  S   UNL d   1       2.084   5.983  -5.996  0.00  0.00     0.015 SA
ATOM      6  C4  UNL d   1       1.220   4.720  -5.247  0.00  0.00     0.022 A 
ATOM      7  C5  UNL d   1       2.048   3.873  -4.548  0.00  0.00     0.026 A 
ATOM      8  C6  UNL d   1       3.429   4.257  -4.620  0.00  0.00    -0.082 A 
ATOM      9  C7  UNL d   1       4.582   3.664  -4.051  0.00  0.00     0.045 A 
ENDROOT
TORSDOF 0
ENDMDL
