MODEL 1
REMARK minimizedAffinity 15.0229177
REMARK minimizedRMSD -1
REMARK  0 active torsions:
REMARK  status: ('A' for Active; 'I' for Inactive)
ROOT
ATOM      1  C   UNL d   1      -2.846  -2.898  -1.205  0.00  0.00    -0.002 A 
ATOM      2  C1  UNL d   1      -3.100  -1.908  -2.144  0.00  0.00     0.010 A 
ATOM      3  C2  UNL d   1      -2.633  -2.035  -3.454  0.00  0.00     0.041 A 
ATOM      4  C3  UNL d   1      -1.901  -3.185  -3.808  0.00  0.00    -0.075 A 
ATOM      5  S   UNL d   1      -1.230  -3.555  -5.353  0.00  0.00     0.015 SA
ATOM      6  C4  UNL d   1      -0.591  -5.036  -4.803  0.00  0.00     0.022 A 
ATOM      7  C5  UNL d   1      -0.872  -5.258  -3.476  0.00  0.00     0.026 A 
ATOM      8  C6  UNL d   1      -1.632  -4.195  -2.880  0.00  0.00    -0.082 A 
ATOM      9  C7  UNL d   1      -2.118  -4.037  -1.560  0.00  0.00     0.045 A 
ENDROOT
TORSDOF 0
ENDMDL
