MODEL 1
REMARK minimizedAffinity 5.34671402
REMARK minimizedRMSD -1
REMARK  0 active torsions:
REMARK  status: ('A' for Active; 'I' for Inactive)
ROOT
ATOM      1  C   UNL d   1      -2.615   0.712   3.002  0.00  0.00    -0.002 A 
ATOM      2  C1  UNL d   1      -2.104   2.002   3.023  0.00  0.00     0.010 A 
ATOM      3  C2  UNL d   1      -2.713   2.994   3.794  0.00  0.00     0.041 A 
ATOM      4  C3  UNL d   1      -3.854   2.665   4.551  0.00  0.00    -0.075 A 
ATOM      5  S   UNL d   1      -4.766   3.717   5.569  0.00  0.00     0.015 SA
ATOM      6  C4  UNL d   1      -5.854   2.478   6.000  0.00  0.00     0.022 A 
ATOM      7  C5  UNL d   1      -5.545   1.285   5.391  0.00  0.00     0.026 A 
ATOM      8  C6  UNL d   1      -4.387   1.373   4.546  0.00  0.00    -0.082 A 
ATOM      9  C7  UNL d   1      -3.747   0.389   3.754  0.00  0.00     0.045 A 
ENDROOT
TORSDOF 0
ENDMDL
