MODEL 1
REMARK minimizedAffinity 12.3878946
REMARK minimizedRMSD -1
REMARK  0 active torsions:
REMARK  status: ('A' for Active; 'I' for Inactive)
ROOT
ATOM      1  C   UNL d   1       0.026   2.050   2.576  0.00  0.00    -0.002 A 
ATOM      2  C1  UNL d   1      -0.744   1.051   1.996  0.00  0.00     0.010 A 
ATOM      3  C2  UNL d   1      -0.209   0.227   1.004  0.00  0.00     0.041 A 
ATOM      4  C3  UNL d   1       1.126   0.424   0.602  0.00  0.00    -0.075 A 
ATOM      5  S   UNL d   1       1.993  -0.465  -0.594  0.00  0.00     0.015 SA
ATOM      6  C4  UNL d   1       3.407   0.458  -0.363  0.00  0.00     0.022 A 
ATOM      7  C5  UNL d   1       3.239   1.426   0.599  0.00  0.00     0.026 A 
ATOM      8  C6  UNL d   1       1.922   1.422   1.171  0.00  0.00    -0.082 A 
ATOM      9  C7  UNL d   1       1.351   2.242   2.174  0.00  0.00     0.045 A 
ENDROOT
TORSDOF 0
ENDMDL
