MODEL 1
REMARK minimizedAffinity 2.69609427
REMARK minimizedRMSD -1
REMARK  0 active torsions:
REMARK  status: ('A' for Active; 'I' for Inactive)
ROOT
ATOM      1  C   UNL d   1      -0.610   1.943   1.021  0.00  0.00     0.124 A 
ATOM      2  C1  UNL d   1       0.105   1.954  -0.169  0.00  0.00     0.062 A 
ATOM      3  C2  UNL d   1       0.592   0.765  -0.704  0.00  0.00     0.162 A 
ATOM      4  C3  UNL d   1       0.365  -0.446  -0.049  0.00  0.00    -0.034 A 
ATOM      5  C4  UNL d   1      -0.354  -0.449   1.147  0.00  0.00     0.162 A 
ATOM      6  C5  UNL d   1      -0.839   0.742   1.677  0.00  0.00     0.062 A 
ATOM      7  F   UNL d   1      -1.529   0.730   2.827  0.00  0.00    -0.097 F 
ATOM      8  F1  UNL d   1      -0.590  -1.595   1.802  0.00  0.00    -0.096 F 
ATOM      9  I   UNL d   1       1.092  -2.226  -0.845  0.00  0.00    -0.060 I 
ATOM     10  F2  UNL d   1       1.280   0.805  -1.854  0.00  0.00    -0.096 F 
ATOM     11  F3  UNL d   1       0.328   3.113  -0.805  0.00  0.00    -0.097 F 
ATOM     12  F4  UNL d   1      -1.077   3.089   1.533  0.00  0.00    -0.092 F 
ENDROOT
TORSDOF 0
ENDMDL
