MODEL 1
REMARK minimizedAffinity -1.97609127
REMARK minimizedRMSD -1
REMARK  0 active torsions:
REMARK  status: ('A' for Active; 'I' for Inactive)
ROOT
ATOM      1  C   UNL d   1      -0.558   2.421   0.902  0.00  0.00     0.124 A 
ATOM      2  C1  UNL d   1      -0.864   1.206   1.501  0.00  0.00     0.062 A 
ATOM      3  C2  UNL d   1      -0.370   0.019   0.968  0.00  0.00     0.162 A 
ATOM      4  C3  UNL d   1       0.435   0.040  -0.171  0.00  0.00    -0.034 A 
ATOM      5  C4  UNL d   1       0.738   1.265  -0.768  0.00  0.00     0.162 A 
ATOM      6  C5  UNL d   1       0.242   2.449  -0.231  0.00  0.00     0.062 A 
ATOM      7  F   UNL d   1       0.539   3.621  -0.811  0.00  0.00    -0.097 F 
ATOM      8  F1  UNL d   1       1.510   1.322  -1.864  0.00  0.00    -0.096 F 
ATOM      9  I   UNL d   1       1.175  -1.733  -0.971  0.00  0.00    -0.060 I 
ATOM     10  F2  UNL d   1      -0.682  -1.140   1.567  0.00  0.00    -0.096 F 
ATOM     11  F3  UNL d   1      -1.637   1.176   2.596  0.00  0.00    -0.097 F 
ATOM     12  F4  UNL d   1      -1.035   3.562   1.417  0.00  0.00    -0.092 F 
ENDROOT
TORSDOF 0
ENDMDL
