MODEL 1
REMARK minimizedAffinity -3.62512708
REMARK minimizedRMSD -1
REMARK  0 active torsions:
REMARK  status: ('A' for Active; 'I' for Inactive)
ROOT
ATOM      1  C   UNL d   1      -0.290   2.187   0.909  0.00  0.00     0.124 A 
ATOM      2  C1  UNL d   1      -0.593   1.023   1.600  0.00  0.00     0.062 A 
ATOM      3  C2  UNL d   1      -0.146  -0.208   1.128  0.00  0.00     0.162 A 
ATOM      4  C3  UNL d   1       0.611  -0.281  -0.041  0.00  0.00    -0.034 A 
ATOM      5  C4  UNL d   1       0.911   0.895  -0.732  0.00  0.00     0.162 A 
ATOM      6  C5  UNL d   1       0.461   2.123  -0.256  0.00  0.00     0.062 A 
ATOM      7  F   UNL d   1       0.755   3.247  -0.925  0.00  0.00    -0.097 F 
ATOM      8  F1  UNL d   1       1.636   0.861  -1.860  0.00  0.00    -0.096 F 
ATOM      9  I   UNL d   1       1.281  -2.119  -0.750  0.00  0.00    -0.060 I 
ATOM     10  F2  UNL d   1      -0.454  -1.317   1.817  0.00  0.00    -0.096 F 
ATOM     11  F3  UNL d   1      -1.320   1.082   2.726  0.00  0.00    -0.097 F 
ATOM     12  F4  UNL d   1      -0.723   3.370   1.365  0.00  0.00    -0.092 F 
ENDROOT
TORSDOF 0
ENDMDL
