MODEL 1
REMARK minimizedAffinity 1.07596159
REMARK minimizedRMSD -1
REMARK  0 active torsions:
REMARK  status: ('A' for Active; 'I' for Inactive)
ROOT
ATOM      1  C   UNL d   1      -0.506   1.583   0.813  0.00  0.00     0.124 A 
ATOM      2  C1  UNL d   1      -0.830   0.412   1.485  0.00  0.00     0.062 A 
ATOM      3  C2  UNL d   1      -0.295  -0.804   1.068  0.00  0.00     0.162 A 
ATOM      4  C3  UNL d   1       0.570  -0.855  -0.025  0.00  0.00    -0.034 A 
ATOM      5  C4  UNL d   1       0.890   0.327  -0.695  0.00  0.00     0.162 A 
ATOM      6  C5  UNL d   1       0.353   1.539  -0.275  0.00  0.00     0.062 A 
ATOM      7  F   UNL d   1       0.667   2.670  -0.925  0.00  0.00    -0.097 F 
ATOM      8  F1  UNL d   1       1.718   0.314  -1.750  0.00  0.00    -0.096 F 
ATOM      9  I   UNL d   1       1.372  -2.671  -0.650  0.00  0.00    -0.060 I 
ATOM     10  F2  UNL d   1      -0.625  -1.920   1.736  0.00  0.00    -0.096 F 
ATOM     11  F3  UNL d   1      -1.660   0.451   2.536  0.00  0.00    -0.097 F 
ATOM     12  F4  UNL d   1      -1.023   2.751   1.215  0.00  0.00    -0.092 F 
ENDROOT
TORSDOF 0
ENDMDL
