MODEL 1
REMARK minimizedAffinity 2.44083095
REMARK minimizedRMSD -1
REMARK  0 active torsions:
REMARK  status: ('A' for Active; 'I' for Inactive)
ROOT
ATOM      1  C   UNL d   1       0.910  -4.116  -1.123  0.00  0.00     0.124 A 
ATOM      2  C1  UNL d   1       1.727  -3.370  -0.284  0.00  0.00     0.062 A 
ATOM      3  C2  UNL d   1       1.688  -1.979  -0.325  0.00  0.00     0.162 A 
ATOM      4  C3  UNL d   1       0.829  -1.325  -1.208  0.00  0.00    -0.034 A 
ATOM      5  C4  UNL d   1       0.012  -2.082  -2.050  0.00  0.00     0.162 A 
ATOM      6  C5  UNL d   1       0.054  -3.472  -2.005  0.00  0.00     0.062 A 
ATOM      7  F   UNL d   1      -0.735  -4.191  -2.816  0.00  0.00    -0.097 F 
ATOM      8  F1  UNL d   1      -0.826  -1.485  -2.911  0.00  0.00    -0.096 F 
ATOM      9  I   UNL d   1       0.769   0.754  -1.273  0.00  0.00    -0.060 I 
ATOM     10  F2  UNL d   1       2.488  -1.284   0.497  0.00  0.00    -0.096 F 
ATOM     11  F3  UNL d   1       2.555  -3.991   0.568  0.00  0.00    -0.097 F 
ATOM     12  F4  UNL d   1       0.950  -5.454  -1.082  0.00  0.00    -0.092 F 
ENDROOT
TORSDOF 0
ENDMDL
