MODEL 1
REMARK minimizedAffinity -1.36850083
REMARK minimizedRMSD -1
REMARK  0 active torsions:
REMARK  status: ('A' for Active; 'I' for Inactive)
ROOT
ATOM      1  C   UNL d   1      -0.602   1.977   0.828  0.00  0.00     0.124 A 
ATOM      2  C1  UNL d   1       0.268   1.968  -0.253  0.00  0.00     0.062 A 
ATOM      3  C2  UNL d   1       0.708   0.760  -0.787  0.00  0.00     0.162 A 
ATOM      4  C3  UNL d   1       0.277  -0.449  -0.242  0.00  0.00    -0.034 A 
ATOM      5  C4  UNL d   1      -0.598  -0.432   0.846  0.00  0.00     0.162 A 
ATOM      6  C5  UNL d   1      -1.034   0.778   1.376  0.00  0.00     0.062 A 
ATOM      7  F   UNL d   1      -1.875   0.785   2.421  0.00  0.00    -0.097 F 
ATOM      8  F1  UNL d   1      -1.032  -1.576   1.395  0.00  0.00    -0.096 F 
ATOM      9  I   UNL d   1       0.933  -2.257  -1.038  0.00  0.00    -0.060 I 
ATOM     10  F2  UNL d   1       1.549   0.781  -1.832  0.00  0.00    -0.096 F 
ATOM     11  F3  UNL d   1       0.688   3.125  -0.784  0.00  0.00    -0.097 F 
ATOM     12  F4  UNL d   1      -1.023   3.140   1.341  0.00  0.00    -0.092 F 
ENDROOT
TORSDOF 0
ENDMDL
