MODEL 1
REMARK minimizedAffinity 1.11983514
REMARK minimizedRMSD -1
REMARK  0 active torsions:
REMARK  status: ('A' for Active; 'I' for Inactive)
ROOT
ATOM      1  C   UNL d   1       1.092  -4.126  -1.662  0.00  0.00     0.124 A 
ATOM      2  C1  UNL d   1       0.379  -3.550  -2.704  0.00  0.00     0.062 A 
ATOM      3  C2  UNL d   1       0.189  -2.171  -2.743  0.00  0.00     0.162 A 
ATOM      4  C3  UNL d   1       0.713  -1.359  -1.738  0.00  0.00    -0.034 A 
ATOM      5  C4  UNL d   1       1.429  -1.946  -0.693  0.00  0.00     0.162 A 
ATOM      6  C5  UNL d   1       1.616  -3.324  -0.658  0.00  0.00     0.062 A 
ATOM      7  F   UNL d   1       2.305  -3.880   0.350  0.00  0.00    -0.097 F 
ATOM      8  F1  UNL d   1       1.947  -1.195   0.290  0.00  0.00    -0.096 F 
ATOM      9  I   UNL d   1       0.431   0.702  -1.794  0.00  0.00    -0.060 I 
ATOM     10  F2  UNL d   1      -0.504  -1.641  -3.762  0.00  0.00    -0.096 F 
ATOM     11  F3  UNL d   1      -0.129  -4.322  -3.675  0.00  0.00    -0.097 F 
ATOM     12  F4  UNL d   1       1.273  -5.453  -1.626  0.00  0.00    -0.092 F 
ENDROOT
TORSDOF 0
ENDMDL
