MODEL 1
REMARK minimizedAffinity 2.6092844
REMARK minimizedRMSD -1
REMARK  0 active torsions:
REMARK  status: ('A' for Active; 'I' for Inactive)
ROOT
ATOM      1  C   UNL d   1      -0.565   2.167   0.567  0.00  0.00     0.124 A 
ATOM      2  C1  UNL d   1      -0.931   1.032   1.278  0.00  0.00     0.062 A 
ATOM      3  C2  UNL d   1      -0.531  -0.227   0.841  0.00  0.00     0.162 A 
ATOM      4  C3  UNL d   1       0.239  -0.359  -0.315  0.00  0.00    -0.034 A 
ATOM      5  C4  UNL d   1       0.602   0.787  -1.025  0.00  0.00     0.162 A 
ATOM      6  C5  UNL d   1       0.200   2.043  -0.584  0.00  0.00     0.062 A 
ATOM      7  F   UNL d   1       0.554   3.138  -1.272  0.00  0.00    -0.097 F 
ATOM      8  F1  UNL d   1       1.342   0.696  -2.140  0.00  0.00    -0.096 F 
ATOM      9  I   UNL d   1       0.839  -2.240  -0.973  0.00  0.00    -0.060 I 
ATOM     10  F2  UNL d   1      -0.899  -1.306   1.548  0.00  0.00    -0.096 F 
ATOM     11  F3  UNL d   1      -1.671   1.149   2.390  0.00  0.00    -0.097 F 
ATOM     12  F4  UNL d   1      -0.952   3.377   0.990  0.00  0.00    -0.092 F 
ENDROOT
TORSDOF 0
ENDMDL
