MODEL 1
REMARK minimizedAffinity -0.392197669
REMARK minimizedRMSD -1
REMARK  0 active torsions:
REMARK  status: ('A' for Active; 'I' for Inactive)
ROOT
ATOM      1  C   UNL d   1      -0.588   2.377   0.680  0.00  0.00     0.124 A 
ATOM      2  C1  UNL d   1      -0.956   1.201   1.317  0.00  0.00     0.062 A 
ATOM      3  C2  UNL d   1      -0.480  -0.024   0.856  0.00  0.00     0.162 A 
ATOM      4  C3  UNL d   1       0.370  -0.078  -0.248  0.00  0.00    -0.034 A 
ATOM      5  C4  UNL d   1       0.735   1.110  -0.885  0.00  0.00     0.162 A 
ATOM      6  C5  UNL d   1       0.257   2.331  -0.420  0.00  0.00     0.062 A 
ATOM      7  F   UNL d   1       0.614   3.467  -1.037  0.00  0.00    -0.097 F 
ATOM      8  F1  UNL d   1       1.551   1.094  -1.950  0.00  0.00    -0.096 F 
ATOM      9  I   UNL d   1       1.083  -1.906  -0.941  0.00  0.00    -0.060 I 
ATOM     10  F2  UNL d   1      -0.852  -1.145   1.492  0.00  0.00    -0.096 F 
ATOM     11  F3  UNL d   1      -1.772   1.243   2.380  0.00  0.00    -0.097 F 
ATOM     12  F4  UNL d   1      -1.047   3.554   1.125  0.00  0.00    -0.092 F 
ENDROOT
TORSDOF 0
ENDMDL
