MODEL 1
REMARK minimizedAffinity 0.520908177
REMARK minimizedRMSD -1
REMARK  0 active torsions:
REMARK  status: ('A' for Active; 'I' for Inactive)
ROOT
ATOM      1  C   UNL d   1      -0.256   2.381   1.252  0.00  0.00     0.124 A 
ATOM      2  C1  UNL d   1       0.380   2.463   0.021  0.00  0.00     0.062 A 
ATOM      3  C2  UNL d   1       0.787   1.305  -0.635  0.00  0.00     0.162 A 
ATOM      4  C3  UNL d   1       0.559   0.054  -0.061  0.00  0.00    -0.034 A 
ATOM      5  C4  UNL d   1      -0.080  -0.020   1.177  0.00  0.00     0.162 A 
ATOM      6  C5  UNL d   1      -0.486   1.140   1.829  0.00  0.00     0.062 A 
ATOM      7  F   UNL d   1      -1.100   1.058   3.018  0.00  0.00    -0.097 F 
ATOM      8  F1  UNL d   1      -0.315  -1.207   1.757  0.00  0.00    -0.096 F 
ATOM      9  I   UNL d   1       1.167  -1.679  -1.039  0.00  0.00    -0.060 I 
ATOM     10  F2  UNL d   1       1.400   1.415  -1.823  0.00  0.00    -0.096 F 
ATOM     11  F3  UNL d   1       0.603   3.661  -0.537  0.00  0.00    -0.097 F 
ATOM     12  F4  UNL d   1      -0.647   3.497   1.882  0.00  0.00    -0.092 F 
ENDROOT
TORSDOF 0
ENDMDL
