MODEL 1
REMARK minimizedAffinity 0.418199956
REMARK minimizedRMSD -1
REMARK  0 active torsions:
REMARK  status: ('A' for Active; 'I' for Inactive)
ROOT
ATOM      1  C   UNL d   1      -0.805   1.714   0.962  0.00  0.00     0.124 A 
ATOM      2  C1  UNL d   1      -1.090   0.457   1.475  0.00  0.00     0.062 A 
ATOM      3  C2  UNL d   1      -0.545  -0.680   0.885  0.00  0.00     0.162 A 
ATOM      4  C3  UNL d   1       0.292  -0.564  -0.225  0.00  0.00    -0.034 A 
ATOM      5  C4  UNL d   1       0.574   0.704  -0.736  0.00  0.00     0.162 A 
ATOM      6  C5  UNL d   1       0.026   1.837  -0.142  0.00  0.00     0.062 A 
ATOM      7  F   UNL d   1       0.302   3.052  -0.640  0.00  0.00    -0.097 F 
ATOM      8  F1  UNL d   1       1.374   0.852  -1.801  0.00  0.00    -0.096 F 
ATOM      9  I   UNL d   1       1.110  -2.261  -1.109  0.00  0.00    -0.060 I 
ATOM     10  F2  UNL d   1      -0.837  -1.883   1.402  0.00  0.00    -0.096 F 
ATOM     11  F3  UNL d   1      -1.894   0.335   2.541  0.00  0.00    -0.097 F 
ATOM     12  F4  UNL d   1      -1.332   2.806   1.531  0.00  0.00    -0.092 F 
ENDROOT
TORSDOF 0
ENDMDL
