MODEL 1
REMARK minimizedAffinity -1.61130702
REMARK minimizedRMSD -1
REMARK  0 active torsions:
REMARK  status: ('A' for Active; 'I' for Inactive)
ROOT
ATOM      1  C   UNL d   1      -0.708   2.301   0.714  0.00  0.00     0.124 A 
ATOM      2  C1  UNL d   1      -0.851   1.145   1.469  0.00  0.00     0.062 A 
ATOM      3  C2  UNL d   1      -0.282  -0.049   1.037  0.00  0.00     0.162 A 
ATOM      4  C3  UNL d   1       0.437  -0.094  -0.157  0.00  0.00    -0.034 A 
ATOM      5  C4  UNL d   1       0.576   1.072  -0.912  0.00  0.00     0.162 A 
ATOM      6  C5  UNL d   1       0.005   2.263  -0.476  0.00  0.00     0.062 A 
ATOM      7  F   UNL d   1       0.144   3.379  -1.207  0.00  0.00    -0.097 F 
ATOM      8  F1  UNL d   1       1.261   1.065  -2.066  0.00  0.00    -0.096 F 
ATOM      9  I   UNL d   1       1.290  -1.877  -0.807  0.00  0.00    -0.060 I 
ATOM     10  F2  UNL d   1      -0.436  -1.150   1.787  0.00  0.00    -0.096 F 
ATOM     11  F3  UNL d   1      -1.541   1.179   2.619  0.00  0.00    -0.097 F 
ATOM     12  F4  UNL d   1      -1.258   3.448   1.132  0.00  0.00    -0.092 F 
ENDROOT
TORSDOF 0
ENDMDL
