MODEL 1
REMARK minimizedAffinity -1.51792908
REMARK minimizedRMSD -1
REMARK  0 active torsions:
REMARK  status: ('A' for Active; 'I' for Inactive)
ROOT
ATOM      1  C   UNL d   1      -0.365   2.059   0.701  0.00  0.00     0.124 A 
ATOM      2  C1  UNL d   1      -0.834   0.873   1.249  0.00  0.00     0.062 A 
ATOM      3  C2  UNL d   1      -0.522  -0.345   0.652  0.00  0.00     0.162 A 
ATOM      4  C3  UNL d   1       0.264  -0.384  -0.500  0.00  0.00    -0.034 A 
ATOM      5  C4  UNL d   1       0.730   0.813  -1.046  0.00  0.00     0.162 A 
ATOM      6  C5  UNL d   1       0.416   2.028  -0.445  0.00  0.00     0.062 A 
ATOM      7  F   UNL d   1       0.869   3.173  -0.976  0.00  0.00    -0.097 F 
ATOM      8  F1  UNL d   1       1.488   0.813  -2.152  0.00  0.00    -0.096 F 
ATOM      9  I   UNL d   1       0.732  -2.203  -1.395  0.00  0.00    -0.060 I 
ATOM     10  F2  UNL d   1      -0.988  -1.476   1.204  0.00  0.00    -0.096 F 
ATOM     11  F3  UNL d   1      -1.589   0.900   2.357  0.00  0.00    -0.097 F 
ATOM     12  F4  UNL d   1      -0.668   3.230   1.277  0.00  0.00    -0.092 F 
ENDROOT
TORSDOF 0
ENDMDL
