MODEL 1
REMARK minimizedAffinity 3.81027389
REMARK minimizedRMSD -1
REMARK  0 active torsions:
REMARK  status: ('A' for Active; 'I' for Inactive)
ROOT
ATOM      1  C   UNL d   1      -0.415   2.244   1.014  0.00  0.00     0.124 A 
ATOM      2  C1  UNL d   1       0.179   2.051  -0.225  0.00  0.00     0.062 A 
ATOM      3  C2  UNL d   1       0.436   0.762  -0.685  0.00  0.00     0.162 A 
ATOM      4  C3  UNL d   1       0.097  -0.344   0.094  0.00  0.00    -0.034 A 
ATOM      5  C4  UNL d   1      -0.499  -0.142   1.340  0.00  0.00     0.162 A 
ATOM      6  C5  UNL d   1      -0.753   1.148   1.795  0.00  0.00     0.062 A 
ATOM      7  F   UNL d   1      -1.327   1.332   2.993  0.00  0.00    -0.097 F 
ATOM      8  F1  UNL d   1      -0.837  -1.183   2.115  0.00  0.00    -0.096 F 
ATOM      9  I   UNL d   1       0.479  -2.272  -0.591  0.00  0.00    -0.060 I 
ATOM     10  F2  UNL d   1       1.011   0.605  -1.887  0.00  0.00    -0.096 F 
ATOM     11  F3  UNL d   1       0.508   3.108  -0.981  0.00  0.00    -0.097 F 
ATOM     12  F4  UNL d   1      -0.659   3.484   1.455  0.00  0.00    -0.092 F 
ENDROOT
TORSDOF 0
ENDMDL
