MODEL 1
REMARK minimizedAffinity 8.72016621
REMARK minimizedRMSD -1
REMARK  1 active torsions:
REMARK  status: ('A' for Active; 'I' for Inactive)
REMARK    1  A    between atoms: C1_2  and  C2_3 
ROOT
ATOM      1  C2  UNL d   1       3.974   4.758   5.388  0.00  0.00    -0.076 A 
ATOM      2  C3  UNL d   1       3.521   3.573   5.993  0.00  0.00     0.004 A 
ATOM      3  C4  UNL d   1       4.283   2.406   5.946  0.00  0.00    -0.003 A 
ATOM      4  C5  UNL d   1       5.511   2.406   5.293  0.00  0.00     0.000 A 
ATOM      5  C6  UNL d   1       5.984   3.578   4.703  0.00  0.00     0.000 A 
ATOM      6  C7  UNL d   1       5.236   4.766   4.755  0.00  0.00    -0.073 A 
ATOM      7  C8  UNL d   1       5.792   5.999   4.096  0.00  0.00     0.078 C 
ENDROOT
BRANCH   1   8
ATOM      8  C1  UNL d   1       3.093   5.985   5.448  0.00  0.00     0.053 C 
ATOM      9  C   UNL d   1       1.646   5.647   5.772  0.00  0.00     0.018 C 
ENDBRANCH   1   8
TORSDOF 1
ENDMDL
