MODEL 1
REMARK minimizedAffinity 8.29850388
REMARK minimizedRMSD -1
REMARK  1 active torsions:
REMARK  status: ('A' for Active; 'I' for Inactive)
REMARK    1  A    between atoms: C1_2  and  C2_3 
ROOT
ATOM      1  C2  UNL d   1       4.524   3.840   5.075  0.00  0.00    -0.076 A 
ATOM      2  C3  UNL d   1       3.340   3.224   5.516  0.00  0.00     0.004 A 
ATOM      3  C4  UNL d   1       2.263   3.983   5.970  0.00  0.00    -0.003 A 
ATOM      4  C5  UNL d   1       2.352   5.370   5.991  0.00  0.00     0.000 A 
ATOM      5  C6  UNL d   1       3.512   5.999   5.541  0.00  0.00     0.000 A 
ATOM      6  C7  UNL d   1       4.602   5.249   5.065  0.00  0.00    -0.073 A 
ATOM      7  C8  UNL d   1       5.831   5.979   4.597  0.00  0.00     0.078 C 
ENDROOT
BRANCH   1   8
ATOM      8  C1  UNL d   1       5.669   2.965   4.619  0.00  0.00     0.053 C 
ATOM      9  C   UNL d   1       5.570   2.595   3.147  0.00  0.00     0.018 C 
ENDBRANCH   1   8
TORSDOF 1
ENDMDL
