MODEL 1
REMARK minimizedAffinity 7.08533096
REMARK minimizedRMSD -1
REMARK  1 active torsions:
REMARK  status: ('A' for Active; 'I' for Inactive)
REMARK    1  A    between atoms: C1_2  and  C2_3 
ROOT
ATOM      1  C2  UNL d   1      -0.063  -0.903   3.743  0.00  0.00    -0.076 A 
ATOM      2  C3  UNL d   1      -0.413  -0.868   2.382  0.00  0.00     0.004 A 
ATOM      3  C4  UNL d   1       0.560  -0.956   1.388  0.00  0.00    -0.003 A 
ATOM      4  C5  UNL d   1       1.899  -1.082   1.739  0.00  0.00     0.000 A 
ATOM      5  C6  UNL d   1       2.263  -1.136   3.084  0.00  0.00     0.000 A 
ATOM      6  C7  UNL d   1       1.293  -1.064   4.098  0.00  0.00    -0.073 A 
ATOM      7  C8  UNL d   1       1.743  -1.121   5.533  0.00  0.00     0.078 C 
ENDROOT
BRANCH   1   8
ATOM      8  C1  UNL d   1      -1.159  -0.776   4.776  0.00  0.00     0.053 C 
ATOM      9  C   UNL d   1      -2.091  -1.978   4.789  0.00  0.00     0.018 C 
ENDBRANCH   1   8
TORSDOF 1
ENDMDL
