MODEL 1
REMARK minimizedAffinity 10.4429207
REMARK minimizedRMSD -1
REMARK  1 active torsions:
REMARK  status: ('A' for Active; 'I' for Inactive)
REMARK    1  A    between atoms: C1_2  and  C2_3 
ROOT
ATOM      1  C2  UNL d   1       4.967  -1.004  -3.756  0.00  0.00    -0.076 A 
ATOM      2  C3  UNL d   1       3.967  -1.887  -3.312  0.00  0.00     0.004 A 
ATOM      3  C4  UNL d   1       3.005  -1.477  -2.390  0.00  0.00    -0.003 A 
ATOM      4  C5  UNL d   1       3.028  -0.177  -1.897  0.00  0.00     0.000 A 
ATOM      5  C6  UNL d   1       4.002   0.717  -2.340  0.00  0.00     0.000 A 
ATOM      6  C7  UNL d   1       4.969   0.325  -3.281  0.00  0.00    -0.073 A 
ATOM      7  C8  UNL d   1       5.999   1.329  -3.719  0.00  0.00     0.078 C 
ENDROOT
BRANCH   1   8
ATOM      8  C1  UNL d   1       5.999  -1.513  -4.736  0.00  0.00     0.053 C 
ATOM      9  C   UNL d   1       5.410  -2.473  -5.758  0.00  0.00     0.018 C 
ENDBRANCH   1   8
TORSDOF 1
ENDMDL
