MODEL 1
REMARK minimizedAffinity 15.1565628
REMARK minimizedRMSD -1
REMARK  1 active torsions:
REMARK  status: ('A' for Active; 'I' for Inactive)
REMARK    1  A    between atoms: C1_2  and  C2_3 
ROOT
ATOM      1  C2  UNL d   1       3.661   0.673  -1.672  0.00  0.00    -0.076 A 
ATOM      2  C3  UNL d   1       4.236  -0.187  -2.624  0.00  0.00     0.004 A 
ATOM      3  C4  UNL d   1       5.396   0.173  -3.308  0.00  0.00    -0.003 A 
ATOM      4  C5  UNL d   1       6.000   1.399  -3.052  0.00  0.00     0.000 A 
ATOM      5  C6  UNL d   1       5.453   2.257  -2.098  0.00  0.00     0.000 A 
ATOM      6  C7  UNL d   1       4.293   1.902  -1.387  0.00  0.00    -0.073 A 
ATOM      7  C8  UNL d   1       3.743   2.868  -0.375  0.00  0.00     0.078 C 
ENDROOT
BRANCH   1   8
ATOM      8  C1  UNL d   1       2.388   0.240  -0.981  0.00  0.00     0.053 C 
ATOM      9  C   UNL d   1       2.643  -0.754   0.141  0.00  0.00     0.018 C 
ENDBRANCH   1   8
TORSDOF 1
ENDMDL
