MODEL 1
REMARK minimizedAffinity 6.76449585
REMARK minimizedRMSD -1
REMARK  1 active torsions:
REMARK  status: ('A' for Active; 'I' for Inactive)
REMARK    1  A    between atoms: C1_2  and  C2_3 
ROOT
ATOM      1  C2  UNL d   1      -1.497   0.591  -2.442  0.00  0.00    -0.076 A 
ATOM      2  C3  UNL d   1      -2.834   0.785  -2.055  0.00  0.00     0.004 A 
ATOM      3  C4  UNL d   1      -3.488  -0.142  -1.245  0.00  0.00    -0.003 A 
ATOM      4  C5  UNL d   1      -2.815  -1.277  -0.808  0.00  0.00     0.000 A 
ATOM      5  C6  UNL d   1      -1.483  -1.477  -1.167  0.00  0.00     0.000 A 
ATOM      6  C7  UNL d   1      -0.804  -0.544  -1.970  0.00  0.00    -0.073 A 
ATOM      7  C8  UNL d   1       0.631  -0.813  -2.333  0.00  0.00     0.078 C 
ENDROOT
BRANCH   1   8
ATOM      8  C1  UNL d   1      -0.848   1.617  -3.344  0.00  0.00     0.053 C 
ATOM      9  C   UNL d   1      -1.798   2.741  -3.725  0.00  0.00     0.018 C 
ENDBRANCH   1   8
TORSDOF 1
ENDMDL
