MODEL 1
REMARK minimizedAffinity 20.3860035
REMARK minimizedRMSD -1
REMARK  1 active torsions:
REMARK  status: ('A' for Active; 'I' for Inactive)
REMARK    1  A    between atoms: C1_2  and  C2_3 
ROOT
ATOM      1  C2  UNL d   1       3.555   4.506   4.385  0.00  0.00    -0.076 A 
ATOM      2  C3  UNL d   1       4.832   4.056   4.005  0.00  0.00     0.004 A 
ATOM      3  C4  UNL d   1       5.981   4.570   4.605  0.00  0.00    -0.003 A 
ATOM      4  C5  UNL d   1       5.871   5.541   5.594  0.00  0.00     0.000 A 
ATOM      5  C6  UNL d   1       4.612   5.985   5.996  0.00  0.00     0.000 A 
ATOM      6  C7  UNL d   1       3.443   5.467   5.413  0.00  0.00    -0.073 A 
ATOM      7  C8  UNL d   1       2.111   5.987   5.880  0.00  0.00     0.078 C 
ENDROOT
BRANCH   1   8
ATOM      8  C1  UNL d   1       2.346   3.933   3.680  0.00  0.00     0.053 C 
ATOM      9  C   UNL d   1       1.277   4.980   3.412  0.00  0.00     0.018 C 
ENDBRANCH   1   8
TORSDOF 1
ENDMDL
