MODEL 1
REMARK minimizedAffinity -0.708095133
REMARK minimizedRMSD -1
REMARK  1 active torsions:
REMARK  status: ('A' for Active; 'I' for Inactive)
REMARK    1  A    between atoms: C1_2  and  C2_3 
ROOT
ATOM      1  C2  UNL d   1       4.795   3.891   5.031  0.00  0.00    -0.076 A 
ATOM      2  C3  UNL d   1       3.697   3.349   5.722  0.00  0.00     0.004 A 
ATOM      3  C4  UNL d   1       2.571   4.123   5.998  0.00  0.00    -0.003 A 
ATOM      4  C5  UNL d   1       2.525   5.451   5.588  0.00  0.00     0.000 A 
ATOM      5  C6  UNL d   1       3.598   5.999   4.886  0.00  0.00     0.000 A 
ATOM      6  C7  UNL d   1       4.734   5.228   4.585  0.00  0.00    -0.073 A 
ATOM      7  C8  UNL d   1       5.865   5.872   3.831  0.00  0.00     0.078 C 
ENDROOT
BRANCH   1   8
ATOM      8  C1  UNL d   1       6.000   3.011   4.784  0.00  0.00     0.053 C 
ATOM      9  C   UNL d   1       5.851   2.157   3.534  0.00  0.00     0.018 C 
ENDBRANCH   1   8
TORSDOF 1
ENDMDL
