MODEL 1
REMARK minimizedAffinity -4.30859661
REMARK minimizedRMSD -1
REMARK  1 active torsions:
REMARK  status: ('A' for Active; 'I' for Inactive)
REMARK    1  A    between atoms: C1_2  and  C2_3 
ROOT
ATOM      1  C2  UNL d   1      -1.606  -0.332   0.476  0.00  0.00    -0.076 A 
ATOM      2  C3  UNL d   1      -1.138  -1.231   1.450  0.00  0.00     0.004 A 
ATOM      3  C4  UNL d   1       0.217  -1.545   1.545  0.00  0.00    -0.003 A 
ATOM      4  C5  UNL d   1       1.126  -0.965   0.667  0.00  0.00     0.000 A 
ATOM      5  C6  UNL d   1       0.681  -0.057  -0.294  0.00  0.00     0.000 A 
ATOM      6  C7  UNL d   1      -0.679   0.283  -0.392  0.00  0.00    -0.073 A 
ATOM      7  C8  UNL d   1      -1.103   1.263  -1.451  0.00  0.00     0.078 C 
ENDROOT
BRANCH   1   8
ATOM      8  C1  UNL d   1      -3.090  -0.051   0.403  0.00  0.00     0.053 C 
ATOM      9  C   UNL d   1      -3.851  -1.128  -0.354  0.00  0.00     0.018 C 
ENDBRANCH   1   8
TORSDOF 1
ENDMDL
