MODEL 1
REMARK minimizedAffinity -2.90115404
REMARK minimizedRMSD -1
REMARK  1 active torsions:
REMARK  status: ('A' for Active; 'I' for Inactive)
REMARK    1  A    between atoms: C1_2  and  C2_3 
ROOT
ATOM      1  C2  UNL d   1      -0.928  -0.711  -0.569  0.00  0.00    -0.076 A 
ATOM      2  C3  UNL d   1      -0.737  -1.274   0.705  0.00  0.00     0.004 A 
ATOM      3  C4  UNL d   1       0.525  -1.299   1.296  0.00  0.00    -0.003 A 
ATOM      4  C5  UNL d   1       1.617  -0.762   0.623  0.00  0.00     0.000 A 
ATOM      5  C6  UNL d   1       1.442  -0.184  -0.634  0.00  0.00     0.000 A 
ATOM      6  C7  UNL d   1       0.174  -0.135  -1.237  0.00  0.00    -0.073 A 
ATOM      7  C8  UNL d   1       0.044   0.494  -2.597  0.00  0.00     0.078 C 
ENDROOT
BRANCH   1   8
ATOM      8  C1  UNL d   1      -2.315  -0.736  -1.171  0.00  0.00     0.053 C 
ATOM      9  C   UNL d   1      -3.333  -1.408  -0.263  0.00  0.00     0.018 C 
ENDBRANCH   1   8
TORSDOF 1
ENDMDL
