MODEL 1
REMARK minimizedAffinity 3.76889277
REMARK minimizedRMSD -1
REMARK  1 active torsions:
REMARK  status: ('A' for Active; 'I' for Inactive)
REMARK    1  A    between atoms: C1_2  and  C2_3 
ROOT
ATOM      1  C2  UNL d   1       5.637   0.832  -0.864  0.00  0.00    -0.076 A 
ATOM      2  C3  UNL d   1       5.303  -0.356  -0.192  0.00  0.00     0.004 A 
ATOM      3  C4  UNL d   1       4.941  -1.502  -0.897  0.00  0.00    -0.003 A 
ATOM      4  C5  UNL d   1       4.909  -1.479  -2.287  0.00  0.00     0.000 A 
ATOM      5  C6  UNL d   1       5.255  -0.314  -2.971  0.00  0.00     0.000 A 
ATOM      6  C7  UNL d   1       5.638   0.845  -2.275  0.00  0.00    -0.073 A 
ATOM      7  C8  UNL d   1       5.995   2.075  -3.064  0.00  0.00     0.078 C 
ENDROOT
BRANCH   1   8
ATOM      8  C1  UNL d   1       5.995   2.052  -0.045  0.00  0.00     0.053 C 
ATOM      9  C   UNL d   1       4.828   3.014   0.107  0.00  0.00     0.018 C 
ENDBRANCH   1   8
TORSDOF 1
ENDMDL
