MODEL 1
REMARK minimizedAffinity 3.4371016
REMARK minimizedRMSD -1
REMARK  1 active torsions:
REMARK  status: ('A' for Active; 'I' for Inactive)
REMARK    1  A    between atoms: C1_2  and  C2_3 
ROOT
ATOM      1  C2  UNL d   1      -0.764  -0.649   0.048  0.00  0.00    -0.076 A 
ATOM      2  C3  UNL d   1      -2.062  -0.487  -0.466  0.00  0.00     0.004 A 
ATOM      3  C4  UNL d   1      -2.287   0.253  -1.626  0.00  0.00    -0.003 A 
ATOM      4  C5  UNL d   1      -1.218   0.841  -2.292  0.00  0.00     0.000 A 
ATOM      5  C6  UNL d   1       0.079   0.675  -1.807  0.00  0.00     0.000 A 
ATOM      6  C7  UNL d   1       0.325  -0.081  -0.647  0.00  0.00    -0.073 A 
ATOM      7  C8  UNL d   1       1.743  -0.222  -0.165  0.00  0.00     0.078 C 
ENDROOT
BRANCH   1   8
ATOM      8  C1  UNL d   1      -0.583  -1.439   1.324  0.00  0.00     0.053 C 
ATOM      9  C   UNL d   1      -1.460  -2.680   1.371  0.00  0.00     0.018 C 
ENDBRANCH   1   8
TORSDOF 1
ENDMDL
