MODEL 1
REMARK minimizedAffinity -2.31449294
REMARK minimizedRMSD -1
REMARK  1 active torsions:
REMARK  status: ('A' for Active; 'I' for Inactive)
REMARK    1  A    between atoms: C1_2  and  C2_3 
ROOT
ATOM      1  C2  UNL d   1      -1.631  -0.203  -0.916  0.00  0.00    -0.076 A 
ATOM      2  C3  UNL d   1      -1.540   0.174  -2.268  0.00  0.00     0.004 A 
ATOM      3  C4  UNL d   1      -0.340   0.638  -2.803  0.00  0.00    -0.003 A 
ATOM      4  C5  UNL d   1       0.789   0.731  -1.997  0.00  0.00     0.000 A 
ATOM      5  C6  UNL d   1       0.721   0.345  -0.659  0.00  0.00     0.000 A 
ATOM      6  C7  UNL d   1      -0.477  -0.140  -0.107  0.00  0.00    -0.073 A 
ATOM      7  C8  UNL d   1      -0.494  -0.537   1.344  0.00  0.00     0.078 C 
ENDROOT
BRANCH   1   8
ATOM      8  C1  UNL d   1      -2.966  -0.673  -0.384  0.00  0.00     0.053 C 
ATOM      9  C   UNL d   1      -3.499   0.222   0.724  0.00  0.00     0.018 C 
ENDBRANCH   1   8
TORSDOF 1
ENDMDL
