MODEL 1
REMARK minimizedAffinity -4.2978406
REMARK minimizedRMSD -1
REMARK  1 active torsions:
REMARK  status: ('A' for Active; 'I' for Inactive)
REMARK    1  A    between atoms: C1_2  and  C2_3 
ROOT
ATOM      1  C2  UNL d   1      -0.831  -1.078   0.825  0.00  0.00    -0.076 A 
ATOM      2  C3  UNL d   1       0.516  -0.734   1.029  0.00  0.00     0.004 A 
ATOM      3  C4  UNL d   1       1.188   0.098   0.134  0.00  0.00    -0.003 A 
ATOM      4  C5  UNL d   1       0.522   0.600  -0.979  0.00  0.00     0.000 A 
ATOM      5  C6  UNL d   1      -0.819   0.283  -1.187  0.00  0.00     0.000 A 
ATOM      6  C7  UNL d   1      -1.516  -0.541  -0.287  0.00  0.00    -0.073 A 
ATOM      7  C8  UNL d   1      -2.960  -0.855  -0.564  0.00  0.00     0.078 C 
ENDROOT
BRANCH   1   8
ATOM      8  C1  UNL d   1      -1.500  -2.006   1.814  0.00  0.00     0.053 C 
ATOM      9  C   UNL d   1      -0.572  -3.111   2.294  0.00  0.00     0.018 C 
ENDBRANCH   1   8
TORSDOF 1
ENDMDL
