MODEL 1
REMARK minimizedAffinity 8.52964306
REMARK minimizedRMSD -1
REMARK  0 active torsions:
REMARK  status: ('A' for Active; 'I' for Inactive)
ROOT
ATOM      1  C   UNL d   1      -1.295  -2.465  -3.129  0.00  0.00     0.023 A 
ATOM      2  C1  UNL d   1      -2.348  -2.067  -2.305  0.00  0.00     0.003 A 
ATOM      3  C2  UNL d   1      -3.302  -2.998  -1.890  0.00  0.00     0.048 A 
ATOM      4  C3  UNL d   1      -3.197  -4.326  -2.301  0.00  0.00     0.023 A 
ATOM      5  C4  UNL d   1      -2.145  -4.730  -3.125  0.00  0.00     0.048 A 
ATOM      6  C5  UNL d   1      -1.194  -3.795  -3.538  0.00  0.00     0.003 A 
ATOM      7  I   UNL d   1      -4.616  -5.713  -1.683  0.00  0.00    -0.146 I 
ENDROOT
TORSDOF 0
ENDMDL
