MODEL 1
REMARK minimizedAffinity 8.13277721
REMARK minimizedRMSD -1
REMARK  0 active torsions:
REMARK  status: ('A' for Active; 'I' for Inactive)
ROOT
ATOM      1  C   UNL d   1       6.000   0.746   0.516  0.00  0.00     0.023 A 
ATOM      2  C1  UNL d   1       5.264  -0.217   1.208  0.00  0.00     0.003 A 
ATOM      3  C2  UNL d   1       3.913   0.001   1.485  0.00  0.00     0.048 A 
ATOM      4  C3  UNL d   1       3.303   1.183   1.065  0.00  0.00     0.023 A 
ATOM      5  C4  UNL d   1       4.035   2.148   0.371  0.00  0.00     0.048 A 
ATOM      6  C5  UNL d   1       5.386   1.926   0.098  0.00  0.00     0.003 A 
ATOM      7  I   UNL d   1       1.292   1.509   1.475  0.00  0.00    -0.146 I 
ENDROOT
TORSDOF 0
ENDMDL
