MODEL 1
REMARK minimizedAffinity 11.9501925
REMARK minimizedRMSD -1
REMARK  0 active torsions:
REMARK  status: ('A' for Active; 'I' for Inactive)
ROOT
ATOM      1  C   UNL d   1       3.656   0.481   1.105  0.00  0.00     0.023 A 
ATOM      2  C1  UNL d   1       2.821  -0.384   1.813  0.00  0.00     0.003 A 
ATOM      3  C2  UNL d   1       1.547   0.034   2.201  0.00  0.00     0.048 A 
ATOM      4  C3  UNL d   1       1.113   1.319   1.876  0.00  0.00     0.023 A 
ATOM      5  C4  UNL d   1       1.944   2.188   1.167  0.00  0.00     0.048 A 
ATOM      6  C5  UNL d   1       3.218   1.765   0.782  0.00  0.00     0.003 A 
ATOM      7  I   UNL d   1      -0.784   1.945   2.451  0.00  0.00    -0.146 I 
ENDROOT
TORSDOF 0
ENDMDL
