MODEL 1
REMARK minimizedAffinity -2.4886148
REMARK minimizedRMSD -1
REMARK  0 active torsions:
REMARK  status: ('A' for Active; 'I' for Inactive)
ROOT
ATOM      1  C   UNL d   1       6.000   1.852   1.405  0.00  0.00     0.023 A 
ATOM      2  C1  UNL d   1       5.819   0.497   1.681  0.00  0.00     0.003 A 
ATOM      3  C2  UNL d   1       4.572  -0.098   1.479  0.00  0.00     0.048 A 
ATOM      4  C3  UNL d   1       3.510   0.668   0.998  0.00  0.00     0.023 A 
ATOM      5  C4  UNL d   1       3.687   2.024   0.719  0.00  0.00     0.048 A 
ATOM      6  C5  UNL d   1       4.935   2.615   0.924  0.00  0.00     0.003 A 
ATOM      7  I   UNL d   1       1.653  -0.216   0.695  0.00  0.00    -0.146 I 
ENDROOT
TORSDOF 0
ENDMDL
