MODEL 1
REMARK minimizedAffinity 5.04165888
REMARK minimizedRMSD -1
REMARK  0 active torsions:
REMARK  status: ('A' for Active; 'I' for Inactive)
ROOT
ATOM      1  C   UNL d   1       6.000   1.865   0.728  0.00  0.00     0.023 A 
ATOM      2  C1  UNL d   1       5.847   0.812   1.630  0.00  0.00     0.003 A 
ATOM      3  C2  UNL d   1       4.575   0.308   1.909  0.00  0.00     0.048 A 
ATOM      4  C3  UNL d   1       3.460   0.861   1.281  0.00  0.00     0.023 A 
ATOM      5  C4  UNL d   1       3.608   1.914   0.377  0.00  0.00     0.048 A 
ATOM      6  C5  UNL d   1       4.881   2.415   0.102  0.00  0.00     0.003 A 
ATOM      7  I   UNL d   1       1.565   0.113   1.694  0.00  0.00    -0.146 I 
ENDROOT
TORSDOF 0
ENDMDL
