MODEL 1
REMARK minimizedAffinity -3.34654021
REMARK minimizedRMSD -1
REMARK  0 active torsions:
REMARK  status: ('A' for Active; 'I' for Inactive)
ROOT
ATOM      1  C   UNL d   1      -4.987   0.977   4.683  0.00  0.00     0.023 A 
ATOM      2  C1  UNL d   1      -5.077   1.672   5.889  0.00  0.00     0.003 A 
ATOM      3  C2  UNL d   1      -5.276   3.054   5.887  0.00  0.00     0.048 A 
ATOM      4  C3  UNL d   1      -5.386   3.735   4.675  0.00  0.00     0.023 A 
ATOM      5  C4  UNL d   1      -5.297   3.043   3.466  0.00  0.00     0.048 A 
ATOM      6  C5  UNL d   1      -5.097   1.662   3.473  0.00  0.00     0.003 A 
ATOM      7  I   UNL d   1      -5.683   5.792   4.669  0.00  0.00    -0.146 I 
ENDROOT
TORSDOF 0
ENDMDL
