MODEL 1
REMARK minimizedAffinity 12.9461269
REMARK minimizedRMSD -1
REMARK  0 active torsions:
REMARK  status: ('A' for Active; 'I' for Inactive)
ROOT
ATOM      1  C   UNL d   1      -2.960  -3.132  -2.512  0.00  0.00     0.023 A 
ATOM      2  C1  UNL d   1      -1.908  -3.893  -3.020  0.00  0.00     0.003 A 
ATOM      3  C2  UNL d   1      -0.654  -3.851  -2.406  0.00  0.00     0.048 A 
ATOM      4  C3  UNL d   1      -0.460  -3.046  -1.284  0.00  0.00     0.023 A 
ATOM      5  C4  UNL d   1      -1.511  -2.283  -0.772  0.00  0.00     0.048 A 
ATOM      6  C5  UNL d   1      -2.762  -2.327  -1.390  0.00  0.00     0.003 A 
ATOM      7  I   UNL d   1       1.404  -2.982  -0.369  0.00  0.00    -0.146 I 
ENDROOT
TORSDOF 0
ENDMDL
