MODEL 1
REMARK minimizedAffinity 6.81766987
REMARK minimizedRMSD -1
REMARK  0 active torsions:
REMARK  status: ('A' for Active; 'I' for Inactive)
ROOT
ATOM      1  C   UNL d   1      -6.000  -2.201   5.235  0.00  0.00     0.023 A 
ATOM      2  C1  UNL d   1      -5.483  -2.206   3.939  0.00  0.00     0.003 A 
ATOM      3  C2  UNL d   1      -4.922  -1.045   3.405  0.00  0.00     0.048 A 
ATOM      4  C3  UNL d   1      -4.881   0.119   4.172  0.00  0.00     0.023 A 
ATOM      5  C4  UNL d   1      -5.396   0.129   5.469  0.00  0.00     0.048 A 
ATOM      6  C5  UNL d   1      -5.957  -1.035   5.999  0.00  0.00     0.003 A 
ATOM      7  I   UNL d   1      -4.046   1.850   3.380  0.00  0.00    -0.146 I 
ENDROOT
TORSDOF 0
ENDMDL
