MODEL 1
REMARK minimizedAffinity 15.195509
REMARK minimizedRMSD -1
REMARK  0 active torsions:
REMARK  status: ('A' for Active; 'I' for Inactive)
ROOT
ATOM      1  C   UNL d   1       1.939  -0.055   0.728  0.00  0.00     0.023 A 
ATOM      2  C1  UNL d   1       1.260   0.693   1.690  0.00  0.00     0.003 A 
ATOM      3  C2  UNL d   1       1.688   1.985   2.003  0.00  0.00     0.048 A 
ATOM      4  C3  UNL d   1       2.795   2.523   1.349  0.00  0.00     0.023 A 
ATOM      5  C4  UNL d   1       3.477   1.779   0.385  0.00  0.00     0.048 A 
ATOM      6  C5  UNL d   1       3.046   0.488   0.076  0.00  0.00     0.003 A 
ATOM      7  I   UNL d   1       3.435   4.446   1.812  0.00  0.00    -0.146 I 
ENDROOT
TORSDOF 0
ENDMDL
