MODEL 1
REMARK minimizedAffinity 9.75721455
REMARK minimizedRMSD -1
REMARK  0 active torsions:
REMARK  status: ('A' for Active; 'I' for Inactive)
ROOT
ATOM      1  C   UNL d   1       2.785   0.314   1.942  0.00  0.00     0.023 A 
ATOM      2  C1  UNL d   1       2.273   1.428   1.277  0.00  0.00     0.003 A 
ATOM      3  C2  UNL d   1       2.939   1.944   0.164  0.00  0.00     0.048 A 
ATOM      4  C3  UNL d   1       4.116   1.342  -0.280  0.00  0.00     0.023 A 
ATOM      5  C4  UNL d   1       4.632   0.226   0.383  0.00  0.00     0.048 A 
ATOM      6  C5  UNL d   1       3.963  -0.286   1.496  0.00  0.00     0.003 A 
ATOM      7  I   UNL d   1       5.109   2.109  -1.936  0.00  0.00    -0.146 I 
ENDROOT
TORSDOF 0
ENDMDL
