MODEL 1
REMARK minimizedAffinity 10.723484
REMARK minimizedRMSD -1
REMARK  0 active torsions:
REMARK  status: ('A' for Active; 'I' for Inactive)
ROOT
ATOM      1  C   UNL d   1       0.399  -2.976  -5.998  0.00  0.00     0.023 A 
ATOM      2  C1  UNL d   1       0.948  -3.415  -4.793  0.00  0.00     0.003 A 
ATOM      3  C2  UNL d   1       0.301  -3.137  -3.587  0.00  0.00     0.048 A 
ATOM      4  C3  UNL d   1      -0.895  -2.420  -3.594  0.00  0.00     0.023 A 
ATOM      5  C4  UNL d   1      -1.448  -1.979  -4.797  0.00  0.00     0.048 A 
ATOM      6  C5  UNL d   1      -0.797  -2.259  -6.000  0.00  0.00     0.003 A 
ATOM      7  I   UNL d   1      -1.860  -2.004  -1.800  0.00  0.00    -0.146 I 
ENDROOT
TORSDOF 0
ENDMDL
