MODEL 1
REMARK minimizedAffinity 15.4569206
REMARK minimizedRMSD -1
REMARK  0 active torsions:
REMARK  status: ('A' for Active; 'I' for Inactive)
ROOT
ATOM      1  C   UNL d   1       0.269   0.910   5.005  0.00  0.00     0.023 A 
ATOM      2  C1  UNL d   1       0.072   1.724   3.889  0.00  0.00     0.003 A 
ATOM      3  C2  UNL d   1       0.937   1.634   2.796  0.00  0.00     0.048 A 
ATOM      4  C3  UNL d   1       1.995   0.726   2.825  0.00  0.00     0.023 A 
ATOM      5  C4  UNL d   1       2.196  -0.090   3.939  0.00  0.00     0.048 A 
ATOM      6  C5  UNL d   1       1.330   0.004   5.030  0.00  0.00     0.003 A 
ATOM      7  I   UNL d   1       3.283   0.590   1.199  0.00  0.00    -0.146 I 
ENDROOT
TORSDOF 0
ENDMDL
