MODEL 1
REMARK minimizedAffinity 3.08720613
REMARK minimizedRMSD -1
REMARK  0 active torsions:
REMARK  status: ('A' for Active; 'I' for Inactive)
ROOT
ATOM      1  C   UNL d   1       4.571   1.542  -4.067  0.00  0.00     0.023 A 
ATOM      2  C1  UNL d   1       4.498   2.667  -3.245  0.00  0.00     0.003 A 
ATOM      3  C2  UNL d   1       4.230   3.921  -3.799  0.00  0.00     0.048 A 
ATOM      4  C3  UNL d   1       4.035   4.042  -5.174  0.00  0.00     0.023 A 
ATOM      5  C4  UNL d   1       4.106   2.919  -6.000  0.00  0.00     0.048 A 
ATOM      6  C5  UNL d   1       4.375   1.668  -5.442  0.00  0.00     0.003 A 
ATOM      7  I   UNL d   1       3.635   5.907  -6.000  0.00  0.00    -0.146 I 
ENDROOT
TORSDOF 0
ENDMDL
