MODEL 1
REMARK minimizedAffinity 8.11069679
REMARK minimizedRMSD -1
REMARK  0 active torsions:
REMARK  status: ('A' for Active; 'I' for Inactive)
ROOT
ATOM      1  C   UNL d   1       1.627   1.184   1.119  0.00  0.00     0.023 A 
ATOM      2  C1  UNL d   1       2.747   1.566   0.380  0.00  0.00     0.003 A 
ATOM      3  C2  UNL d   1       4.002   1.038   0.689  0.00  0.00     0.048 A 
ATOM      4  C3  UNL d   1       4.130   0.127   1.737  0.00  0.00     0.023 A 
ATOM      5  C4  UNL d   1       3.012  -0.259   2.478  0.00  0.00     0.048 A 
ATOM      6  C5  UNL d   1       1.760   0.272   2.167  0.00  0.00     0.003 A 
ATOM      7  I   UNL d   1       5.997  -0.661   2.198  0.00  0.00    -0.146 I 
ENDROOT
TORSDOF 0
ENDMDL
