MODEL 1
REMARK minimizedAffinity 12.242815
REMARK minimizedRMSD -1
REMARK  0 active torsions:
REMARK  status: ('A' for Active; 'I' for Inactive)
ROOT
ATOM      1  C   UNL d   1      -2.481  -2.835  -2.576  0.00  0.00     0.023 A 
ATOM      2  C1  UNL d   1      -1.157  -2.629  -2.187  0.00  0.00     0.003 A 
ATOM      3  C2  UNL d   1      -0.823  -2.601  -0.832  0.00  0.00     0.048 A 
ATOM      4  C3  UNL d   1      -1.817  -2.780   0.130  0.00  0.00     0.023 A 
ATOM      5  C4  UNL d   1      -3.143  -2.987  -0.255  0.00  0.00     0.048 A 
ATOM      6  C5  UNL d   1      -3.472  -3.013  -1.611  0.00  0.00     0.003 A 
ATOM      7  I   UNL d   1      -1.322  -2.738   2.148  0.00  0.00    -0.146 I 
ENDROOT
TORSDOF 0
ENDMDL
