MODEL 1
REMARK minimizedAffinity 7.42028284
REMARK minimizedRMSD -1
REMARK  0 active torsions:
REMARK  status: ('A' for Active; 'I' for Inactive)
ROOT
ATOM      1  C   UNL d   1      -2.053  -3.182  -3.706  0.00  0.00     0.023 A 
ATOM      2  C1  UNL d   1      -2.328  -2.090  -2.883  0.00  0.00     0.003 A 
ATOM      3  C2  UNL d   1      -2.013  -2.142  -1.523  0.00  0.00     0.048 A 
ATOM      4  C3  UNL d   1      -1.423  -3.289  -0.994  0.00  0.00     0.023 A 
ATOM      5  C4  UNL d   1      -1.145  -4.384  -1.814  0.00  0.00     0.048 A 
ATOM      6  C5  UNL d   1      -1.463  -4.328  -3.172  0.00  0.00     0.003 A 
ATOM      7  I   UNL d   1      -0.953  -3.369   1.029  0.00  0.00    -0.146 I 
ENDROOT
TORSDOF 0
ENDMDL
