MODEL 1
REMARK minimizedAffinity 5.37341499
REMARK minimizedRMSD -1
REMARK  1 active torsions:
REMARK  status: ('A' for Active; 'I' for Inactive)
REMARK    1  A    between atoms: C3_4  and  O_7 
ROOT
ATOM      1  C   UNL d   1      -4.141   5.992   1.239  0.00  0.00    -0.033 A 
ATOM      2  C1  UNL d   1      -5.376   5.993   0.587  0.00  0.00     0.039 A 
ATOM      3  C2  UNL d   1      -5.439   5.794  -0.793  0.00  0.00    -0.080 A 
ATOM      4  C3  UNL d   1      -4.262   5.593  -1.509  0.00  0.00     0.150 A 
ATOM      5  C4  UNL d   1      -3.029   5.587  -0.865  0.00  0.00    -0.007 A 
ATOM      6  C5  UNL d   1      -2.968   5.788   0.513  0.00  0.00     0.039 A 
ENDROOT
BRANCH   4   7
ATOM      7  O   UNL d   1      -4.273   5.399  -2.858  0.00  0.00    -0.526 OA
ATOM      8  H5  UNL d   1      -5.191   5.457  -3.170  0.00  0.00     0.418 HD
ENDBRANCH   4   7
TORSDOF 1
ENDMDL
