MODEL 1
REMARK minimizedAffinity 8.69785118
REMARK minimizedRMSD -1
REMARK  1 active torsions:
REMARK  status: ('A' for Active; 'I' for Inactive)
REMARK    1  A    between atoms: C3_4  and  O_7 
ROOT
ATOM      1  C   UNL d   1       0.692  -2.252  -5.997  0.00  0.00    -0.033 A 
ATOM      2  C1  UNL d   1       1.576  -1.172  -5.999  0.00  0.00     0.039 A 
ATOM      3  C2  UNL d   1       2.954  -1.395  -5.999  0.00  0.00    -0.080 A 
ATOM      4  C3  UNL d   1       3.435  -2.701  -5.997  0.00  0.00     0.150 A 
ATOM      5  C4  UNL d   1       2.560  -3.783  -5.998  0.00  0.00    -0.007 A 
ATOM      6  C5  UNL d   1       1.184  -3.558  -5.998  0.00  0.00     0.039 A 
ENDROOT
BRANCH   4   7
ATOM      7  O   UNL d   1       4.771  -2.969  -5.992  0.00  0.00    -0.526 OA
ATOM      8  H5  UNL d   1       5.254  -2.126  -5.962  0.00  0.00     0.418 HD
ENDBRANCH   4   7
TORSDOF 1
ENDMDL
