MODEL 1
REMARK minimizedAffinity 11.5495348
REMARK minimizedRMSD -1
REMARK  1 active torsions:
REMARK  status: ('A' for Active; 'I' for Inactive)
REMARK    1  A    between atoms: C3_4  and  O_7 
ROOT
ATOM      1  C   UNL d   1      -0.902  -2.717   5.154  0.00  0.00    -0.033 A 
ATOM      2  C1  UNL d   1      -0.929  -3.854   4.345  0.00  0.00     0.039 A 
ATOM      3  C2  UNL d   1      -2.111  -4.231   3.705  0.00  0.00    -0.080 A 
ATOM      4  C3  UNL d   1      -3.259  -3.462   3.883  0.00  0.00     0.150 A 
ATOM      5  C4  UNL d   1      -3.239  -2.326   4.685  0.00  0.00    -0.007 A 
ATOM      6  C5  UNL d   1      -2.057  -1.952   5.323  0.00  0.00     0.039 A 
ENDROOT
BRANCH   4   7
ATOM      7  O   UNL d   1      -4.437  -3.793   3.283  0.00  0.00    -0.526 OA
ATOM      8  H5  UNL d   1      -4.308  -4.616   2.783  0.00  0.00     0.418 HD
ENDBRANCH   4   7
TORSDOF 1
ENDMDL
