MODEL 1
REMARK minimizedAffinity 10.0522957
REMARK minimizedRMSD -1
REMARK  1 active torsions:
REMARK  status: ('A' for Active; 'I' for Inactive)
REMARK    1  A    between atoms: C3_4  and  O_7 
ROOT
ATOM      1  C   UNL d   1       2.337  -1.507  -5.984  0.00  0.00    -0.033 A 
ATOM      2  C1  UNL d   1       2.344  -2.903  -5.988  0.00  0.00     0.039 A 
ATOM      3  C2  UNL d   1       1.139  -3.610  -5.994  0.00  0.00    -0.080 A 
ATOM      4  C3  UNL d   1      -0.064  -2.909  -5.998  0.00  0.00     0.150 A 
ATOM      5  C4  UNL d   1      -0.078  -1.518  -5.998  0.00  0.00    -0.007 A 
ATOM      6  C5  UNL d   1       1.126  -0.814  -5.991  0.00  0.00     0.039 A 
ENDROOT
BRANCH   4   7
ATOM      7  O   UNL d   1      -1.265  -3.554  -5.999  0.00  0.00    -0.526 OA
ATOM      8  H5  UNL d   1      -1.099  -4.511  -5.969  0.00  0.00     0.418 HD
ENDBRANCH   4   7
TORSDOF 1
ENDMDL
