MODEL 1
REMARK minimizedAffinity 8.74521637
REMARK minimizedRMSD -1
REMARK  1 active torsions:
REMARK  status: ('A' for Active; 'I' for Inactive)
REMARK    1  A    between atoms: C3_4  and  O_7 
ROOT
ATOM      1  C   UNL d   1      -2.251  -2.142   4.871  0.00  0.00    -0.033 A 
ATOM      2  C1  UNL d   1      -2.613  -2.996   3.828  0.00  0.00     0.039 A 
ATOM      3  C2  UNL d   1      -3.833  -3.675   3.870  0.00  0.00    -0.080 A 
ATOM      4  C3  UNL d   1      -4.680  -3.490   4.959  0.00  0.00     0.150 A 
ATOM      5  C4  UNL d   1      -4.328  -2.637   6.000  0.00  0.00    -0.007 A 
ATOM      6  C5  UNL d   1      -3.109  -1.961   5.956  0.00  0.00     0.039 A 
ENDROOT
BRANCH   4   7
ATOM      7  O   UNL d   1      -5.878  -4.134   5.047  0.00  0.00    -0.526 OA
ATOM      8  H5  UNL d   1      -5.975  -4.711   4.271  0.00  0.00     0.418 HD
ENDBRANCH   4   7
TORSDOF 1
ENDMDL
