MODEL 1
REMARK minimizedAffinity 9.78864002
REMARK minimizedRMSD -1
REMARK  1 active torsions:
REMARK  status: ('A' for Active; 'I' for Inactive)
REMARK    1  A    between atoms: C3_4  and  O_7 
ROOT
ATOM      1  C   UNL d   1      -4.240   5.999   2.069  0.00  0.00    -0.033 A 
ATOM      2  C1  UNL d   1      -5.563   5.994   1.622  0.00  0.00     0.039 A 
ATOM      3  C2  UNL d   1      -5.840   5.985   0.253  0.00  0.00    -0.080 A 
ATOM      4  C3  UNL d   1      -4.786   5.979  -0.657  0.00  0.00     0.150 A 
ATOM      5  C4  UNL d   1      -3.466   5.981  -0.219  0.00  0.00    -0.007 A 
ATOM      6  C5  UNL d   1      -3.192   5.991   1.148  0.00  0.00     0.039 A 
ENDROOT
BRANCH   4   7
ATOM      7  O   UNL d   1      -5.006   5.975  -2.002  0.00  0.00    -0.526 OA
ATOM      8  H5  UNL d   1      -5.965   6.004  -2.157  0.00  0.00     0.418 HD
ENDBRANCH   4   7
TORSDOF 1
ENDMDL
