MODEL 1
REMARK minimizedAffinity 13.9954329
REMARK minimizedRMSD -1
REMARK  1 active torsions:
REMARK  status: ('A' for Active; 'I' for Inactive)
REMARK    1  A    between atoms: C3_4  and  O_7 
ROOT
ATOM      1  C   UNL d   1      -4.768   3.056  -3.591  0.00  0.00    -0.033 A 
ATOM      2  C1  UNL d   1      -4.088   4.215  -3.212  0.00  0.00     0.039 A 
ATOM      3  C2  UNL d   1      -2.694   4.213  -3.130  0.00  0.00    -0.080 A 
ATOM      4  C3  UNL d   1      -1.993   3.048  -3.429  0.00  0.00     0.150 A 
ATOM      5  C4  UNL d   1      -2.665   1.891  -3.811  0.00  0.00    -0.007 A 
ATOM      6  C5  UNL d   1      -4.056   1.894  -3.891  0.00  0.00     0.039 A 
ENDROOT
BRANCH   4   7
ATOM      7  O   UNL d   1      -0.633   2.996  -3.358  0.00  0.00    -0.526 OA
ATOM      8  H5  UNL d   1      -0.308   3.860  -3.054  0.00  0.00     0.418 HD
ENDBRANCH   4   7
TORSDOF 1
ENDMDL
