MODEL 1
REMARK minimizedAffinity 9.37054157
REMARK minimizedRMSD -1
REMARK  1 active torsions:
REMARK  status: ('A' for Active; 'I' for Inactive)
REMARK    1  A    between atoms: C3_4  and  O_7 
ROOT
ATOM      1  C   UNL d   1      -4.805   5.999   2.343  0.00  0.00    -0.033 A 
ATOM      2  C1  UNL d   1      -3.593   5.766   1.691  0.00  0.00     0.039 A 
ATOM      3  C2  UNL d   1      -3.573   5.528   0.315  0.00  0.00    -0.080 A 
ATOM      4  C3  UNL d   1      -4.770   5.527  -0.396  0.00  0.00     0.150 A 
ATOM      5  C4  UNL d   1      -5.981   5.762   0.247  0.00  0.00    -0.007 A 
ATOM      6  C5  UNL d   1      -5.999   5.999   1.621  0.00  0.00     0.039 A 
ENDROOT
BRANCH   4   7
ATOM      7  O   UNL d   1      -4.801   5.295  -1.739  0.00  0.00    -0.526 OA
ATOM      8  H5  UNL d   1      -3.894   5.120  -2.042  0.00  0.00     0.418 HD
ENDBRANCH   4   7
TORSDOF 1
ENDMDL
