MODEL 1
REMARK minimizedAffinity 11.8065929
REMARK minimizedRMSD -1
REMARK  1 active torsions:
REMARK  status: ('A' for Active; 'I' for Inactive)
REMARK    1  A    between atoms: C3_4  and  O_7 
ROOT
ATOM      1  C   UNL d   1       2.086  -0.851  -5.996  0.00  0.00    -0.033 A 
ATOM      2  C1  UNL d   1       0.731  -0.517  -5.999  0.00  0.00     0.039 A 
ATOM      3  C2  UNL d   1      -0.239  -1.522  -5.999  0.00  0.00    -0.080 A 
ATOM      4  C3  UNL d   1       0.161  -2.856  -5.995  0.00  0.00     0.150 A 
ATOM      5  C4  UNL d   1       1.509  -3.196  -5.988  0.00  0.00    -0.007 A 
ATOM      6  C5  UNL d   1       2.475  -2.191  -5.989  0.00  0.00     0.039 A 
ENDROOT
BRANCH   4   7
ATOM      7  O   UNL d   1      -0.749  -3.871  -6.000  0.00  0.00    -0.526 OA
ATOM      8  H5  UNL d   1      -1.640  -3.486  -6.033  0.00  0.00     0.418 HD
ENDBRANCH   4   7
TORSDOF 1
ENDMDL
