MODEL 1
REMARK minimizedAffinity 4.94321346
REMARK minimizedRMSD -1
REMARK  1 active torsions:
REMARK  status: ('A' for Active; 'I' for Inactive)
REMARK    1  A    between atoms: C3_4  and  O_7 
ROOT
ATOM      1  C   UNL d   1       0.395   3.665   0.938  0.00  0.00    -0.033 A 
ATOM      2  C1  UNL d   1      -0.459   2.620   0.581  0.00  0.00     0.039 A 
ATOM      3  C2  UNL d   1      -1.028   2.587  -0.694  0.00  0.00    -0.080 A 
ATOM      4  C3  UNL d   1      -0.734   3.602  -1.600  0.00  0.00     0.150 A 
ATOM      5  C4  UNL d   1       0.119   4.643  -1.252  0.00  0.00    -0.007 A 
ATOM      6  C5  UNL d   1       0.686   4.676   0.022  0.00  0.00     0.039 A 
ENDROOT
BRANCH   4   7
ATOM      7  O   UNL d   1      -1.269   3.615  -2.854  0.00  0.00    -0.526 OA
ATOM      8  H5  UNL d   1      -1.862   2.849  -2.944  0.00  0.00     0.418 HD
ENDBRANCH   4   7
TORSDOF 1
ENDMDL
