MODEL 1
REMARK minimizedAffinity 2.67098093
REMARK minimizedRMSD -1
REMARK  1 active torsions:
REMARK  status: ('A' for Active; 'I' for Inactive)
REMARK    1  A    between atoms: C3_4  and  O_7 
ROOT
ATOM      1  C   UNL d   1      -2.462   2.540   1.704  0.00  0.00    -0.033 A 
ATOM      2  C1  UNL d   1      -1.362   1.751   1.362  0.00  0.00     0.039 A 
ATOM      3  C2  UNL d   1      -0.354   2.270   0.548  0.00  0.00    -0.080 A 
ATOM      4  C3  UNL d   1      -0.457   3.579   0.084  0.00  0.00     0.150 A 
ATOM      5  C4  UNL d   1      -1.547   4.372   0.425  0.00  0.00    -0.007 A 
ATOM      6  C5  UNL d   1      -2.554   3.852   1.237  0.00  0.00     0.039 A 
ENDROOT
BRANCH   4   7
ATOM      7  O   UNL d   1       0.500   4.129  -0.716  0.00  0.00    -0.526 OA
ATOM      8  H5  UNL d   1       1.179   3.455  -0.892  0.00  0.00     0.418 HD
ENDBRANCH   4   7
TORSDOF 1
ENDMDL
