MODEL 1
REMARK minimizedAffinity 2.49931884
REMARK minimizedRMSD -1
REMARK  1 active torsions:
REMARK  status: ('A' for Active; 'I' for Inactive)
REMARK    1  A    between atoms: C3_4  and  O_7 
ROOT
ATOM      1  C   UNL d   1       0.140   4.554  -0.066  0.00  0.00    -0.033 A 
ATOM      2  C1  UNL d   1      -0.429   4.763  -1.324  0.00  0.00     0.039 A 
ATOM      3  C2  UNL d   1      -0.857   3.675  -2.088  0.00  0.00    -0.080 A 
ATOM      4  C3  UNL d   1      -0.710   2.386  -1.583  0.00  0.00     0.150 A 
ATOM      5  C4  UNL d   1      -0.147   2.171  -0.330  0.00  0.00    -0.007 A 
ATOM      6  C5  UNL d   1       0.280   3.258   0.432  0.00  0.00     0.039 A 
ENDROOT
BRANCH   4   7
ATOM      7  O   UNL d   1      -1.108   1.293  -2.294  0.00  0.00    -0.526 OA
ATOM      8  H5  UNL d   1      -1.451   1.593  -3.153  0.00  0.00     0.418 HD
ENDBRANCH   4   7
TORSDOF 1
ENDMDL
