MODEL 1
REMARK minimizedAffinity -0.699096024
REMARK minimizedRMSD -1
REMARK  1 active torsions:
REMARK  status: ('A' for Active; 'I' for Inactive)
REMARK    1  A    between atoms: C3_4  and  O_7 
ROOT
ATOM      1  C   UNL d   1      -0.152   4.202  -0.707  0.00  0.00    -0.033 A 
ATOM      2  C1  UNL d   1       0.075   3.398   0.412  0.00  0.00     0.039 A 
ATOM      3  C2  UNL d   1       0.807   3.892   1.493  0.00  0.00    -0.080 A 
ATOM      4  C3  UNL d   1       1.306   5.191   1.443  0.00  0.00     0.150 A 
ATOM      5  C4  UNL d   1       1.081   5.999   0.334  0.00  0.00    -0.007 A 
ATOM      6  C5  UNL d   1       0.350   5.503  -0.745  0.00  0.00     0.039 A 
ENDROOT
BRANCH   4   7
ATOM      7  O   UNL d   1       2.031   5.715   2.472  0.00  0.00    -0.526 OA
ATOM      8  H5  UNL d   1       2.131   5.034   3.157  0.00  0.00     0.418 HD
ENDBRANCH   4   7
TORSDOF 1
ENDMDL
