MODEL 1
REMARK minimizedAffinity 14.8650341
REMARK minimizedRMSD -1
REMARK  1 active torsions:
REMARK  status: ('A' for Active; 'I' for Inactive)
REMARK    1  A    between atoms: C3_4  and  O_7 
ROOT
ATOM      1  C   UNL d   1       1.867  -1.484   1.481  0.00  0.00    -0.033 A 
ATOM      2  C1  UNL d   1       1.261  -1.053   2.662  0.00  0.00     0.039 A 
ATOM      3  C2  UNL d   1       0.382  -1.896   3.345  0.00  0.00    -0.080 A 
ATOM      4  C3  UNL d   1       0.119  -3.166   2.838  0.00  0.00     0.150 A 
ATOM      5  C4  UNL d   1       0.723  -3.602   1.663  0.00  0.00    -0.007 A 
ATOM      6  C5  UNL d   1       1.600  -2.759   0.982  0.00  0.00     0.039 A 
ENDROOT
BRANCH   4   7
ATOM      7  O   UNL d   1      -0.735  -4.022   3.467  0.00  0.00    -0.526 OA
ATOM      8  H5  UNL d   1      -1.099  -3.574   4.249  0.00  0.00     0.418 HD
ENDBRANCH   4   7
TORSDOF 1
ENDMDL
