MODEL 1
REMARK minimizedAffinity 8.05926132
REMARK minimizedRMSD -1
REMARK  1 active torsions:
REMARK  status: ('A' for Active; 'I' for Inactive)
REMARK    1  A    between atoms: C3_4  and  O_7 
ROOT
ATOM      1  C   UNL d   1       0.063   5.445   0.533  0.00  0.00    -0.033 A 
ATOM      2  C1  UNL d   1       0.759   4.334   0.052  0.00  0.00     0.039 A 
ATOM      3  C2  UNL d   1       0.361   3.721  -1.138  0.00  0.00    -0.080 A 
ATOM      4  C3  UNL d   1      -0.731   4.228  -1.836  0.00  0.00     0.150 A 
ATOM      5  C4  UNL d   1      -1.426   5.337  -1.364  0.00  0.00    -0.007 A 
ATOM      6  C5  UNL d   1      -1.028   5.948  -0.175  0.00  0.00     0.039 A 
ENDROOT
BRANCH   4   7
ATOM      7  O   UNL d   1      -1.159   3.661  -2.999  0.00  0.00    -0.526 OA
ATOM      8  H5  UNL d   1      -0.602   2.887  -3.187  0.00  0.00     0.418 HD
ENDBRANCH   4   7
TORSDOF 1
ENDMDL
