MODEL 1
REMARK minimizedAffinity 1.28795803
REMARK minimizedRMSD -1
REMARK  1 active torsions:
REMARK  status: ('A' for Active; 'I' for Inactive)
REMARK    1  A    between atoms: C3_4  and  O_7 
ROOT
ATOM      1  C   UNL d   1      -4.354   0.367  -0.735  0.00  0.00    -0.033 A 
ATOM      2  C1  UNL d   1      -5.545   0.198  -0.026  0.00  0.00     0.039 A 
ATOM      3  C2  UNL d   1      -6.000  -1.086   0.280  0.00  0.00    -0.080 A 
ATOM      4  C3  UNL d   1      -5.256  -2.190  -0.127  0.00  0.00     0.150 A 
ATOM      5  C4  UNL d   1      -4.067  -2.028  -0.830  0.00  0.00    -0.007 A 
ATOM      6  C5  UNL d   1      -3.614  -0.746  -1.136  0.00  0.00     0.039 A 
ENDROOT
BRANCH   4   7
ATOM      7  O   UNL d   1      -5.663  -3.463   0.145  0.00  0.00    -0.526 OA
ATOM      8  H5  UNL d   1      -6.514  -3.421   0.611  0.00  0.00     0.418 HD
ENDBRANCH   4   7
TORSDOF 1
ENDMDL
