MODEL 1
REMARK minimizedAffinity 2.02735043
REMARK minimizedRMSD -1
REMARK  1 active torsions:
REMARK  status: ('A' for Active; 'I' for Inactive)
REMARK    1  A    between atoms: C3_4  and  O_7 
ROOT
ATOM      1  C   UNL d   1      -5.097  -4.134   5.999  0.00  0.00    -0.033 A 
ATOM      2  C1  UNL d   1      -4.205  -3.377   5.237  0.00  0.00     0.039 A 
ATOM      3  C2  UNL d   1      -4.207  -3.485   3.845  0.00  0.00    -0.080 A 
ATOM      4  C3  UNL d   1      -5.105  -4.351   3.228  0.00  0.00     0.150 A 
ATOM      5  C4  UNL d   1      -5.999  -5.106   3.981  0.00  0.00    -0.007 A 
ATOM      6  C5  UNL d   1      -5.995  -4.998   5.371  0.00  0.00     0.039 A 
ENDROOT
BRANCH   4   7
ATOM      7  O   UNL d   1      -5.142  -4.494   1.873  0.00  0.00    -0.526 OA
ATOM      8  H5  UNL d   1      -4.449  -3.933   1.486  0.00  0.00     0.418 HD
ENDBRANCH   4   7
TORSDOF 1
ENDMDL
