MODEL 1
REMARK minimizedAffinity 8.21407604
REMARK minimizedRMSD -1
REMARK  2 active torsions:
REMARK  status: ('A' for Active; 'I' for Inactive)
REMARK    1  A    between atoms: C2'_3  and  C1'_4 
REMARK    2  A    between atoms: C1'_4  and  C1_5 
ROOT
ATOM      1  C1  I4B d   1      -1.111  -0.657   3.174  0.00  0.00    -0.075 A 
ATOM      2  C2  I4B d   1      -1.486  -1.934   3.507  0.00  0.00     0.003 A 
ATOM      3  C3  I4B d   1      -2.821  -2.360   3.306  0.00  0.00     0.002 A 
ATOM      4  C4  I4B d   1      -3.754  -1.467   2.820  0.00  0.00    -0.004 A 
ATOM      5  C5  I4B d   1      -3.367  -0.179   2.462  0.00  0.00     0.002 A 
ATOM      6  C6  I4B d   1      -2.034   0.226   2.628  0.00  0.00     0.003 A 
ENDROOT
BRANCH   1   7
ATOM      7  C1' I4B d   1       0.300  -0.230   3.430  0.00  0.00     0.060 C 
BRANCH   7   8
ATOM      8  C2' I4B d   1       0.861   0.327   2.138  0.00  0.00    -0.013 C 
ATOM      9  C4' I4B d   1       2.268   0.829   2.326  0.00  0.00     0.013 C 
ATOM     10  C3' I4B d   1       0.806  -0.757   1.104  0.00  0.00     0.013 C 
ENDBRANCH   7   8
ENDBRANCH   1   7
TORSDOF 2
ENDMDL
