MODEL 1
REMARK minimizedAffinity 17.388567
REMARK minimizedRMSD -1
REMARK  2 active torsions:
REMARK  status: ('A' for Active; 'I' for Inactive)
REMARK    1  A    between atoms: C2'_3  and  C1'_4 
REMARK    2  A    between atoms: C1'_4  and  C1_5 
ROOT
ATOM      1  C1  I4B d   1       2.189  -2.348  -4.872  0.00  0.00    -0.075 A 
ATOM      2  C2  I4B d   1       0.883  -1.929  -4.851  0.00  0.00     0.003 A 
ATOM      3  C3  I4B d   1       0.577  -0.547  -4.905  0.00  0.00     0.002 A 
ATOM      4  C4  I4B d   1       1.602   0.376  -4.927  0.00  0.00    -0.004 A 
ATOM      5  C5  I4B d   1       2.926  -0.052  -4.971  0.00  0.00     0.002 A 
ATOM      6  C6  I4B d   1       3.222  -1.423  -4.956  0.00  0.00     0.003 A 
ENDROOT
BRANCH   1   7
ATOM      7  C1' I4B d   1       2.478  -3.813  -4.780  0.00  0.00     0.060 C 
BRANCH   7   8
ATOM      8  C2' I4B d   1       1.862  -4.486  -5.990  0.00  0.00    -0.013 C 
ATOM      9  C4' I4B d   1       2.124  -5.969  -5.981  0.00  0.00     0.013 C 
ATOM     10  C3' I4B d   1       0.391  -4.196  -5.983  0.00  0.00     0.013 C 
ENDBRANCH   7   8
ENDBRANCH   1   7
TORSDOF 2
ENDMDL
