MODEL 1
REMARK minimizedAffinity 12.7104177
REMARK minimizedRMSD -1
REMARK  2 active torsions:
REMARK  status: ('A' for Active; 'I' for Inactive)
REMARK    1  A    between atoms: C2'_3  and  C1'_4 
REMARK    2  A    between atoms: C1'_4  and  C1_5 
ROOT
ATOM      1  C1  I4B d   1       3.851   3.108   2.355  0.00  0.00    -0.075 A 
ATOM      2  C2  I4B d   1       3.936   4.215   3.162  0.00  0.00     0.003 A 
ATOM      3  C3  I4B d   1       3.937   5.512   2.596  0.00  0.00     0.002 A 
ATOM      4  C4  I4B d   1       3.903   5.655   1.224  0.00  0.00    -0.004 A 
ATOM      5  C5  I4B d   1       3.794   4.533   0.407  0.00  0.00     0.002 A 
ATOM      6  C6  I4B d   1       3.755   3.252   0.977  0.00  0.00     0.003 A 
ENDROOT
BRANCH   1   7
ATOM      7  C1' I4B d   1       3.886   1.752   2.984  0.00  0.00     0.060 C 
BRANCH   7   8
ATOM      8  C2' I4B d   1       4.409   1.907   4.398  0.00  0.00    -0.013 C 
ATOM      9  C4' I4B d   1       3.454   1.314   5.401  0.00  0.00     0.013 C 
ATOM     10  C3' I4B d   1       5.751   1.242   4.470  0.00  0.00     0.013 C 
ENDBRANCH   7   8
ENDBRANCH   1   7
TORSDOF 2
ENDMDL
