MODEL 1
REMARK minimizedAffinity 14.2473745
REMARK minimizedRMSD -1
REMARK  2 active torsions:
REMARK  status: ('A' for Active; 'I' for Inactive)
REMARK    1  A    between atoms: C2'_3  and  C1'_4 
REMARK    2  A    between atoms: C1'_4  and  C1_5 
ROOT
ATOM      1  C1  I4B d   1      -1.004  -0.652   1.735  0.00  0.00    -0.075 A 
ATOM      2  C2  I4B d   1      -2.328  -0.735   2.088  0.00  0.00     0.003 A 
ATOM      3  C3  I4B d   1      -3.234  -1.472   1.287  0.00  0.00     0.002 A 
ATOM      4  C4  I4B d   1      -2.786  -2.064   0.124  0.00  0.00    -0.004 A 
ATOM      5  C5  I4B d   1      -1.439  -1.997  -0.220  0.00  0.00     0.002 A 
ATOM      6  C6  I4B d   1      -0.539  -1.297   0.597  0.00  0.00     0.003 A 
ENDROOT
BRANCH   1   7
ATOM      7  C1' I4B d   1      -0.081   0.163   2.586  0.00  0.00     0.060 C 
BRANCH   7   8
ATOM      8  C2' I4B d   1       1.239  -0.574   2.679  0.00  0.00    -0.013 C 
ATOM      9  C4' I4B d   1       2.356   0.356   3.075  0.00  0.00     0.013 C 
ATOM     10  C3' I4B d   1       1.080  -1.684   3.675  0.00  0.00     0.013 C 
ENDBRANCH   7   8
ENDBRANCH   1   7
TORSDOF 2
ENDMDL
