MODEL 1
REMARK minimizedAffinity 7.63462639
REMARK minimizedRMSD -1
REMARK  2 active torsions:
REMARK  status: ('A' for Active; 'I' for Inactive)
REMARK    1  A    between atoms: C2'_3  and  C1'_4 
REMARK    2  A    between atoms: C1'_4  and  C1_5 
ROOT
ATOM      1  C1  I4B d   1       4.395   3.471   2.248  0.00  0.00    -0.075 A 
ATOM      2  C2  I4B d   1       4.828   3.591   3.545  0.00  0.00     0.003 A 
ATOM      3  C3  I4B d   1       4.929   4.868   4.148  0.00  0.00     0.002 A 
ATOM      4  C4  I4B d   1       4.638   5.995   3.406  0.00  0.00    -0.004 A 
ATOM      5  C5  I4B d   1       4.177   5.870   2.099  0.00  0.00     0.002 A 
ATOM      6  C6  I4B d   1       4.043   4.600   1.519  0.00  0.00     0.003 A 
ENDROOT
BRANCH   1   7
ATOM      7  C1' I4B d   1       4.332   2.110   1.632  0.00  0.00     0.060 C 
BRANCH   7   8
ATOM      8  C2' I4B d   1       5.675   1.440   1.841  0.00  0.00    -0.013 C 
ATOM      9  C4' I4B d   1       5.820   0.937   3.253  0.00  0.00     0.013 C 
ATOM     10  C3' I4B d   1       5.791   0.318   0.852  0.00  0.00     0.013 C 
ENDBRANCH   7   8
ENDBRANCH   1   7
TORSDOF 2
ENDMDL
