MODEL 1
REMARK minimizedAffinity 9.94249058
REMARK minimizedRMSD -1
REMARK  2 active torsions:
REMARK  status: ('A' for Active; 'I' for Inactive)
REMARK    1  A    between atoms: C2'_3  and  C1'_4 
REMARK    2  A    between atoms: C1'_4  and  C1_5 
ROOT
ATOM      1  C1  I4B d   1       0.546  -0.881   3.093  0.00  0.00    -0.075 A 
ATOM      2  C2  I4B d   1      -0.739  -1.121   2.673  0.00  0.00     0.003 A 
ATOM      3  C3  I4B d   1      -1.613  -0.042   2.399  0.00  0.00     0.002 A 
ATOM      4  C4  I4B d   1      -1.180   1.252   2.604  0.00  0.00    -0.004 A 
ATOM      5  C5  I4B d   1       0.130   1.495   3.007  0.00  0.00     0.002 A 
ATOM      6  C6  I4B d   1       1.003   0.422   3.242  0.00  0.00     0.003 A 
ENDROOT
BRANCH   1   7
ATOM      7  C1' I4B d   1       1.432  -2.045   3.405  0.00  0.00     0.060 C 
BRANCH   7   8
ATOM      8  C2' I4B d   1       1.142  -2.484   4.826  0.00  0.00    -0.013 C 
ATOM      9  C4' I4B d   1       0.057  -3.527   4.865  0.00  0.00     0.013 C 
ATOM     10  C3' I4B d   1       2.417  -3.007   5.419  0.00  0.00     0.013 C 
ENDBRANCH   7   8
ENDBRANCH   1   7
TORSDOF 2
ENDMDL
