MODEL 1
REMARK minimizedAffinity 10.038414
REMARK minimizedRMSD -1
REMARK  2 active torsions:
REMARK  status: ('A' for Active; 'I' for Inactive)
REMARK    1  A    between atoms: C2'_3  and  C1'_4 
REMARK    2  A    between atoms: C1'_4  and  C1_5 
ROOT
ATOM      1  C1  I4B d   1       0.841   0.152   3.485  0.00  0.00    -0.075 A 
ATOM      2  C2  I4B d   1       1.593  -0.254   4.559  0.00  0.00     0.003 A 
ATOM      3  C3  I4B d   1       1.755  -1.633   4.835  0.00  0.00     0.002 A 
ATOM      4  C4  I4B d   1       1.110  -2.564   4.046  0.00  0.00    -0.004 A 
ATOM      5  C5  I4B d   1       0.367  -2.151   2.944  0.00  0.00     0.002 A 
ATOM      6  C6  I4B d   1       0.241  -0.785   2.654  0.00  0.00     0.003 A 
ENDROOT
BRANCH   1   7
ATOM      7  C1' I4B d   1       0.663   1.618   3.242  0.00  0.00     0.060 C 
BRANCH   7   8
ATOM      8  C2' I4B d   1      -0.549   2.078   4.027  0.00  0.00    -0.013 C 
ATOM      9  C4' I4B d   1      -0.164   2.519   5.414  0.00  0.00     0.013 C 
ATOM     10  C3' I4B d   1      -1.198   3.193   3.263  0.00  0.00     0.013 C 
ENDBRANCH   7   8
ENDBRANCH   1   7
TORSDOF 2
ENDMDL
