MODEL 1
REMARK minimizedAffinity 11.0616674
REMARK minimizedRMSD -1
REMARK  0 active torsions:
REMARK  status: ('A' for Active; 'I' for Inactive)
ROOT
ATOM      1  C   UNL d   1      -1.752  -5.739   5.396  0.00  0.00    -0.002 A 
ATOM      2  C1  UNL d   1      -0.883  -5.999   4.345  0.00  0.00     0.010 A 
ATOM      3  C2  UNL d   1      -0.019  -5.008   3.876  0.00  0.00     0.041 A 
ATOM      4  C3  UNL d   1      -0.042  -3.739   4.487  0.00  0.00    -0.075 A 
ATOM      5  S   UNL d   1       0.927  -2.372   4.081  0.00  0.00     0.015 SA
ATOM      6  C4  UNL d   1       0.212  -1.411   5.293  0.00  0.00     0.022 A 
ATOM      7  C5  UNL d   1      -0.745  -2.100   6.000  0.00  0.00     0.026 A 
ATOM      8  C6  UNL d   1      -0.906  -3.453   5.548  0.00  0.00    -0.082 A 
ATOM      9  C7  UNL d   1      -1.771  -4.479   6.000  0.00  0.00     0.045 A 
ENDROOT
TORSDOF 0
ENDMDL
