MODEL 1
REMARK minimizedAffinity 10.2273388
REMARK minimizedRMSD -1
REMARK  0 active torsions:
REMARK  status: ('A' for Active; 'I' for Inactive)
ROOT
ATOM      1  C   UNL d   1      -6.000   2.801  -2.846  0.00  0.00    -0.002 A 
ATOM      2  C1  UNL d   1      -5.848   3.791  -3.806  0.00  0.00     0.010 A 
ATOM      3  C2  UNL d   1      -4.896   3.658  -4.819  0.00  0.00     0.041 A 
ATOM      4  C3  UNL d   1      -4.093   2.501  -4.852  0.00  0.00    -0.075 A 
ATOM      5  S   UNL d   1      -2.864   2.122  -6.000  0.00  0.00     0.015 SA
ATOM      6  C4  UNL d   1      -2.512   0.636  -5.243  0.00  0.00     0.022 A 
ATOM      7  C5  UNL d   1      -3.303   0.419  -4.140  0.00  0.00     0.026 A 
ATOM      8  C6  UNL d   1      -4.228   1.490  -3.897  0.00  0.00    -0.082 A 
ATOM      9  C7  UNL d   1      -5.202   1.654  -2.882  0.00  0.00     0.045 A 
ENDROOT
TORSDOF 0
ENDMDL
