MODEL 1
REMARK minimizedAffinity 9.95588875
REMARK minimizedRMSD -1
REMARK  0 active torsions:
REMARK  status: ('A' for Active; 'I' for Inactive)
ROOT
ATOM      1  C   UNL d   1       5.995   3.112   0.794  0.00  0.00    -0.002 A 
ATOM      2  C1  UNL d   1       6.000   3.535  -0.527  0.00  0.00     0.010 A 
ATOM      3  C2  UNL d   1       5.462   2.729  -1.533  0.00  0.00     0.041 A 
ATOM      4  C3  UNL d   1       4.913   1.479  -1.184  0.00  0.00    -0.075 A 
ATOM      5  S   UNL d   1       4.199   0.325  -2.247  0.00  0.00     0.015 SA
ATOM      6  C4  UNL d   1       3.869  -0.757  -0.972  0.00  0.00     0.022 A 
ATOM      7  C5  UNL d   1       4.288  -0.265   0.242  0.00  0.00     0.026 A 
ATOM      8  C6  UNL d   1       4.896   1.032   0.140  0.00  0.00    -0.082 A 
ATOM      9  C7  UNL d   1       5.449   1.871   1.136  0.00  0.00     0.045 A 
ENDROOT
TORSDOF 0
ENDMDL
