MODEL 1
REMARK minimizedAffinity 10.9486036
REMARK minimizedRMSD -1
REMARK  0 active torsions:
REMARK  status: ('A' for Active; 'I' for Inactive)
ROOT
ATOM      1  C   UNL d   1       5.981   3.635  -0.461  0.00  0.00    -0.002 A 
ATOM      2  C1  UNL d   1       5.929   3.309   0.887  0.00  0.00     0.010 A 
ATOM      3  C2  UNL d   1       5.288   2.143   1.311  0.00  0.00     0.041 A 
ATOM      4  C3  UNL d   1       4.696   1.302   0.348  0.00  0.00    -0.075 A 
ATOM      5  S   UNL d   1       3.858  -0.178   0.634  0.00  0.00     0.015 SA
ATOM      6  C4  UNL d   1       3.551  -0.411  -1.026  0.00  0.00     0.022 A 
ATOM      7  C5  UNL d   1       4.068   0.605  -1.794  0.00  0.00     0.026 A 
ATOM      8  C6  UNL d   1       4.737   1.609  -1.015  0.00  0.00    -0.082 A 
ATOM      9  C7  UNL d   1       5.393   2.798  -1.413  0.00  0.00     0.045 A 
ENDROOT
TORSDOF 0
ENDMDL
