MODEL 1
REMARK minimizedAffinity 9.01484299
REMARK minimizedRMSD -1
REMARK  0 active torsions:
REMARK  status: ('A' for Active; 'I' for Inactive)
ROOT
ATOM      1  C   UNL d   1       4.455  -0.661  -2.667  0.00  0.00    -0.002 A 
ATOM      2  C1  UNL d   1       4.509  -0.233  -1.348  0.00  0.00     0.010 A 
ATOM      3  C2  UNL d   1       3.756  -0.874  -0.362  0.00  0.00     0.041 A 
ATOM      4  C3  UNL d   1       2.942  -1.964  -0.727  0.00  0.00    -0.075 A 
ATOM      5  S   UNL d   1       1.935  -2.902   0.311  0.00  0.00     0.015 SA
ATOM      6  C4  UNL d   1       1.410  -3.895  -0.972  0.00  0.00     0.022 A 
ATOM      7  C5  UNL d   1       1.980  -3.533  -2.170  0.00  0.00     0.026 A 
ATOM      8  C6  UNL d   1       2.873  -2.415  -2.048  0.00  0.00    -0.082 A 
ATOM      9  C7  UNL d   1       3.647  -1.744  -3.025  0.00  0.00     0.045 A 
ENDROOT
TORSDOF 0
ENDMDL
