MODEL 1
REMARK minimizedAffinity 18.3105812
REMARK minimizedRMSD -1
REMARK  0 active torsions:
REMARK  status: ('A' for Active; 'I' for Inactive)
ROOT
ATOM      1  C   UNL d   1       4.414   1.174  -0.734  0.00  0.00    -0.002 A 
ATOM      2  C1  UNL d   1       3.631   0.446   0.150  0.00  0.00     0.010 A 
ATOM      3  C2  UNL d   1       2.992  -0.724  -0.265  0.00  0.00     0.041 A 
ATOM      4  C3  UNL d   1       3.156  -1.154  -1.596  0.00  0.00    -0.075 A 
ATOM      5  S   UNL d   1       2.469  -2.557  -2.327  0.00  0.00     0.015 SA
ATOM      6  C4  UNL d   1       3.199  -2.222  -3.831  0.00  0.00     0.022 A 
ATOM      7  C5  UNL d   1       3.952  -1.072  -3.794  0.00  0.00     0.026 A 
ATOM      8  C6  UNL d   1       3.939  -0.438  -2.505  0.00  0.00    -0.082 A 
ATOM      9  C7  UNL d   1       4.574   0.745  -2.054  0.00  0.00     0.045 A 
ENDROOT
TORSDOF 0
ENDMDL
