MODEL 1
REMARK minimizedAffinity 0.209567994
REMARK minimizedRMSD -1
REMARK  1 active torsions:
REMARK  status: ('A' for Active; 'I' for Inactive)
REMARK    1  A    between atoms: C1_2  and  C2_3 
ROOT
ATOM      1  C2  UNL d   1       0.351  -1.179  -0.034  0.00  0.00    -0.081 A 
ATOM      2  C3  UNL d   1      -0.747  -0.316   0.071  0.00  0.00     0.006 A 
ATOM      3  C4  UNL d   1      -0.558   1.067   0.125  0.00  0.00     0.002 A 
ATOM      4  C5  UNL d   1       0.730   1.610   0.067  0.00  0.00    -0.080 A 
ATOM      5  C6  UNL d   1       0.944   3.095   0.093  0.00  0.00     0.076 C 
ATOM      6  C7  UNL d   1       1.828   0.748  -0.021  0.00  0.00     0.002 A 
ATOM      7  C8  UNL d   1       1.640  -0.635  -0.074  0.00  0.00     0.006 A 
ENDROOT
BRANCH   1   8
ATOM      8  C1  UNL d   1       0.147  -2.667  -0.158  0.00  0.00     0.054 C 
ATOM      9  C   UNL d   1      -0.271  -3.053  -1.569  0.00  0.00     0.018 C 
ENDBRANCH   1   8
TORSDOF 1
ENDMDL
