MODEL 1
REMARK minimizedAffinity 2.65080953
REMARK minimizedRMSD -1
REMARK  1 active torsions:
REMARK  status: ('A' for Active; 'I' for Inactive)
REMARK    1  A    between atoms: C1_2  and  C2_3 
ROOT
ATOM      1  C2  UNL d   1       0.371  -2.160  -0.689  0.00  0.00    -0.081 A 
ATOM      2  C3  UNL d   1       1.251  -2.417  -1.747  0.00  0.00     0.006 A 
ATOM      3  C4  UNL d   1       0.907  -3.326  -2.751  0.00  0.00     0.002 A 
ATOM      4  C5  UNL d   1      -0.325  -3.987  -2.717  0.00  0.00    -0.080 A 
ATOM      5  C6  UNL d   1      -0.720  -4.942  -3.804  0.00  0.00     0.076 C 
ATOM      6  C7  UNL d   1      -1.198  -3.744  -1.651  0.00  0.00     0.002 A 
ATOM      7  C8  UNL d   1      -0.854  -2.836  -0.647  0.00  0.00     0.006 A 
ENDROOT
BRANCH   1   8
ATOM      8  C1  UNL d   1       0.712  -1.133   0.359  0.00  0.00     0.054 C 
ATOM      9  C   UNL d   1       0.103   0.222   0.025  0.00  0.00     0.018 C 
ENDBRANCH   1   8
TORSDOF 1
ENDMDL
