MODEL 1
REMARK minimizedAffinity -6.20674753
REMARK minimizedRMSD -1
REMARK  1 active torsions:
REMARK  status: ('A' for Active; 'I' for Inactive)
REMARK    1  A    between atoms: C1_2  and  C2_3 
ROOT
ATOM      1  C2  UNL d   1      -0.066  -0.471  -0.363  0.00  0.00    -0.081 A 
ATOM      2  C3  UNL d   1      -1.228   0.305  -0.274  0.00  0.00     0.006 A 
ATOM      3  C4  UNL d   1      -1.148   1.665   0.036  0.00  0.00     0.002 A 
ATOM      4  C5  UNL d   1       0.093   2.272   0.253  0.00  0.00    -0.080 A 
ATOM      5  C6  UNL d   1       0.194   3.738   0.556  0.00  0.00     0.076 C 
ATOM      6  C7  UNL d   1       1.253   1.493   0.181  0.00  0.00     0.002 A 
ATOM      7  C8  UNL d   1       1.174   0.133  -0.128  0.00  0.00     0.006 A 
ENDROOT
BRANCH   1   8
ATOM      8  C1  UNL d   1      -0.143  -1.923  -0.761  0.00  0.00     0.054 C 
ATOM      9  C   UNL d   1      -0.696  -2.083  -2.170  0.00  0.00     0.018 C 
ENDBRANCH   1   8
TORSDOF 1
ENDMDL
