MODEL 1
REMARK minimizedAffinity -0.507698417
REMARK minimizedRMSD -1
REMARK  1 active torsions:
REMARK  status: ('A' for Active; 'I' for Inactive)
REMARK    1  A    between atoms: C1_2  and  C2_3 
ROOT
ATOM      1  C2  UNL d   1      -0.504  -2.497  -1.818  0.00  0.00    -0.081 A 
ATOM      2  C3  UNL d   1      -0.603  -1.204  -2.348  0.00  0.00     0.006 A 
ATOM      3  C4  UNL d   1      -0.548  -0.089  -1.508  0.00  0.00     0.002 A 
ATOM      4  C5  UNL d   1      -0.385  -0.247  -0.128  0.00  0.00    -0.080 A 
ATOM      5  C6  UNL d   1      -0.293   0.943   0.781  0.00  0.00     0.076 C 
ATOM      6  C7  UNL d   1      -0.303  -1.538   0.403  0.00  0.00     0.002 A 
ATOM      7  C8  UNL d   1      -0.359  -2.654  -0.435  0.00  0.00     0.006 A 
ENDROOT
BRANCH   1   8
ATOM      8  C1  UNL d   1      -0.499  -3.699  -2.727  0.00  0.00     0.054 C 
ATOM      9  C   UNL d   1      -1.915  -4.149  -3.058  0.00  0.00     0.018 C 
ENDBRANCH   1   8
TORSDOF 1
ENDMDL
