MODEL 1
REMARK minimizedAffinity -3.54404283
REMARK minimizedRMSD -1
REMARK  1 active torsions:
REMARK  status: ('A' for Active; 'I' for Inactive)
REMARK    1  A    between atoms: C1_2  and  C2_3 
ROOT
ATOM      1  C2  UNL d   1      -0.253   1.220   0.028  0.00  0.00    -0.081 A 
ATOM      2  C3  UNL d   1      -0.374   2.094   1.115  0.00  0.00     0.006 A 
ATOM      3  C4  UNL d   1       0.165   3.381   1.053  0.00  0.00     0.002 A 
ATOM      4  C5  UNL d   1       0.826   3.818  -0.100  0.00  0.00    -0.080 A 
ATOM      5  C6  UNL d   1       1.383   5.208  -0.192  0.00  0.00     0.076 C 
ATOM      6  C7  UNL d   1       0.963   2.939  -1.180  0.00  0.00     0.002 A 
ATOM      7  C8  UNL d   1       0.425   1.652  -1.117  0.00  0.00     0.006 A 
ENDROOT
BRANCH   1   8
ATOM      8  C1  UNL d   1      -0.889  -0.146   0.068  0.00  0.00     0.054 C 
ATOM      9  C   UNL d   1      -2.142  -0.148   0.932  0.00  0.00     0.018 C 
ENDBRANCH   1   8
TORSDOF 1
ENDMDL
