MODEL 1
REMARK minimizedAffinity -1.69598436
REMARK minimizedRMSD -1
REMARK  1 active torsions:
REMARK  status: ('A' for Active; 'I' for Inactive)
REMARK    1  A    between atoms: C1_2  and  C2_3 
ROOT
ATOM      1  C2  UNL d   1      -0.168  -1.466  -0.444  0.00  0.00    -0.081 A 
ATOM      2  C3  UNL d   1       0.959  -0.815   0.073  0.00  0.00     0.006 A 
ATOM      3  C4  UNL d   1       0.893   0.531   0.440  0.00  0.00     0.002 A 
ATOM      4  C5  UNL d   1      -0.302   1.246   0.304  0.00  0.00    -0.080 A 
ATOM      5  C6  UNL d   1      -0.395   2.684   0.723  0.00  0.00     0.076 C 
ATOM      6  C7  UNL d   1      -1.423   0.601  -0.229  0.00  0.00     0.002 A 
ATOM      7  C8  UNL d   1      -1.357  -0.745  -0.597  0.00  0.00     0.006 A 
ENDROOT
BRANCH   1   8
ATOM      8  C1  UNL d   1      -0.118  -2.934  -0.781  0.00  0.00     0.054 C 
ATOM      9  C   UNL d   1      -0.790  -3.219  -2.117  0.00  0.00     0.018 C 
ENDBRANCH   1   8
TORSDOF 1
ENDMDL
