MODEL 1
REMARK minimizedAffinity -2.4555943
REMARK minimizedRMSD -1
REMARK  1 active torsions:
REMARK  status: ('A' for Active; 'I' for Inactive)
REMARK    1  A    between atoms: C1_2  and  C2_3 
ROOT
ATOM      1  C2  UNL d   1      -0.425   0.775   0.211  0.00  0.00    -0.081 A 
ATOM      2  C3  UNL d   1       0.156   2.049   0.177  0.00  0.00     0.006 A 
ATOM      3  C4  UNL d   1      -0.092   2.967   1.200  0.00  0.00     0.002 A 
ATOM      4  C5  UNL d   1      -0.916   2.625   2.277  0.00  0.00    -0.080 A 
ATOM      5  C6  UNL d   1      -1.166   3.592   3.396  0.00  0.00     0.076 C 
ATOM      6  C7  UNL d   1      -1.510   1.359   2.302  0.00  0.00     0.002 A 
ATOM      7  C8  UNL d   1      -1.264   0.440   1.279  0.00  0.00     0.006 A 
ENDROOT
BRANCH   1   8
ATOM      8  C1  UNL d   1      -0.108  -0.241  -0.857  0.00  0.00     0.054 C 
ATOM      9  C   UNL d   1      -0.044  -1.648  -0.281  0.00  0.00     0.018 C 
ENDBRANCH   1   8
TORSDOF 1
ENDMDL
