MODEL 1
REMARK minimizedAffinity -3.18645954
REMARK minimizedRMSD -1
REMARK  1 active torsions:
REMARK  status: ('A' for Active; 'I' for Inactive)
REMARK    1  A    between atoms: C1_2  and  C2_3 
ROOT
ATOM      1  C2  UNL d   1      -3.127  -4.488  -0.803  0.00  0.00    -0.081 A 
ATOM      2  C3  UNL d   1      -3.040  -3.597  -1.880  0.00  0.00     0.006 A 
ATOM      3  C4  UNL d   1      -1.810  -3.041  -2.241  0.00  0.00     0.002 A 
ATOM      4  C5  UNL d   1      -0.647  -3.372  -1.538  0.00  0.00    -0.080 A 
ATOM      5  C6  UNL d   1       0.684  -2.806  -1.934  0.00  0.00     0.076 C 
ATOM      6  C7  UNL d   1      -0.737  -4.249  -0.451  0.00  0.00     0.002 A 
ATOM      7  C8  UNL d   1      -1.966  -4.804  -0.089  0.00  0.00     0.006 A 
ENDROOT
BRANCH   1   8
ATOM      8  C1  UNL d   1      -4.440  -5.139  -0.452  0.00  0.00     0.054 C 
ATOM      9  C   UNL d   1      -4.314  -6.000   0.797  0.00  0.00     0.018 C 
ENDBRANCH   1   8
TORSDOF 1
ENDMDL
