MODEL 1
REMARK minimizedAffinity -4.46640158
REMARK minimizedRMSD -1
REMARK  1 active torsions:
REMARK  status: ('A' for Active; 'I' for Inactive)
REMARK    1  A    between atoms: C1_2  and  C2_3 
ROOT
ATOM      1  C2  UNL d   1       1.503   1.906   1.007  0.00  0.00    -0.081 A 
ATOM      2  C3  UNL d   1       0.324   2.648   1.151  0.00  0.00     0.006 A 
ATOM      3  C4  UNL d   1      -0.905   2.105   0.768  0.00  0.00     0.002 A 
ATOM      4  C5  UNL d   1      -0.976   0.810   0.244  0.00  0.00    -0.080 A 
ATOM      5  C6  UNL d   1      -2.293   0.204  -0.143  0.00  0.00     0.076 C 
ATOM      6  C7  UNL d   1       0.204   0.076   0.084  0.00  0.00     0.002 A 
ATOM      7  C8  UNL d   1       1.433   0.618   0.465  0.00  0.00     0.006 A 
ENDROOT
BRANCH   1   8
ATOM      8  C1  UNL d   1       2.822   2.464   1.478  0.00  0.00     0.054 C 
ATOM      9  C   UNL d   1       2.845   2.626   2.992  0.00  0.00     0.018 C 
ENDBRANCH   1   8
TORSDOF 1
ENDMDL
