MODEL 1
REMARK minimizedAffinity -4.09050655
REMARK minimizedRMSD -1
REMARK  1 active torsions:
REMARK  status: ('A' for Active; 'I' for Inactive)
REMARK    1  A    between atoms: C1_2  and  C2_3 
ROOT
ATOM      1  C2  UNL d   1      -0.322   0.133   0.114  0.00  0.00    -0.081 A 
ATOM      2  C3  UNL d   1       0.106  -1.045   0.740  0.00  0.00     0.006 A 
ATOM      3  C4  UNL d   1      -0.008  -2.275   0.088  0.00  0.00     0.002 A 
ATOM      4  C5  UNL d   1      -0.544  -2.348  -1.203  0.00  0.00    -0.080 A 
ATOM      5  C6  UNL d   1      -0.644  -3.658  -1.925  0.00  0.00     0.076 C 
ATOM      6  C7  UNL d   1      -0.987  -1.174  -1.821  0.00  0.00     0.002 A 
ATOM      7  C8  UNL d   1      -0.874   0.057  -1.170  0.00  0.00     0.006 A 
ENDROOT
BRANCH   1   8
ATOM      8  C1  UNL d   1      -0.141   1.469   0.788  0.00  0.00     0.054 C 
ATOM      9  C   UNL d   1      -1.477   2.161   1.012  0.00  0.00     0.018 C 
ENDBRANCH   1   8
TORSDOF 1
ENDMDL
