MODEL 1
REMARK minimizedAffinity 8.72926426
REMARK minimizedRMSD -1
REMARK  1 active torsions:
REMARK  status: ('A' for Active; 'I' for Inactive)
REMARK    1  A    between atoms: C1_2  and  C2_3 
ROOT
ATOM      1  C2  UNL d   1      -0.804  -0.379   2.383  0.00  0.00    -0.073 A 
ATOM      2  C3  UNL d   1       0.123   0.588   1.979  0.00  0.00    -0.002 A 
ATOM      3  C4  UNL d   1       1.444   0.528   2.424  0.00  0.00     0.004 A 
ATOM      4  C5  UNL d   1       1.853  -0.502   3.271  0.00  0.00    -0.004 A 
ATOM      5  C6  UNL d   1       0.944  -1.485   3.676  0.00  0.00    -0.075 A 
ATOM      6  C7  UNL d   1       1.367  -2.598   4.589  0.00  0.00     0.076 C 
ATOM      7  C8  UNL d   1      -0.382  -1.416   3.227  0.00  0.00     0.001 A 
ENDROOT
BRANCH   1   8
ATOM      8  C1  UNL d   1      -2.230  -0.321   1.899  0.00  0.00     0.053 C 
ATOM      9  C   UNL d   1      -2.872  -1.699   1.851  0.00  0.00     0.018 C 
ENDBRANCH   1   8
TORSDOF 1
ENDMDL
