MODEL 1
REMARK minimizedAffinity 10.0236111
REMARK minimizedRMSD -1
REMARK  1 active torsions:
REMARK  status: ('A' for Active; 'I' for Inactive)
REMARK    1  A    between atoms: C1_2  and  C2_3 
ROOT
ATOM      1  C2  UNL d   1      -1.039  -1.679   2.216  0.00  0.00    -0.073 A 
ATOM      2  C3  UNL d   1      -0.540  -0.372   2.225  0.00  0.00    -0.002 A 
ATOM      3  C4  UNL d   1       0.653  -0.077   2.886  0.00  0.00     0.004 A 
ATOM      4  C5  UNL d   1       1.363  -1.086   3.538  0.00  0.00    -0.004 A 
ATOM      5  C6  UNL d   1       0.887  -2.401   3.530  0.00  0.00    -0.075 A 
ATOM      6  C7  UNL d   1       1.637  -3.498   4.228  0.00  0.00     0.076 C 
ATOM      7  C8  UNL d   1      -0.314  -2.689   2.866  0.00  0.00     0.001 A 
ENDROOT
BRANCH   1   8
ATOM      8  C1  UNL d   1      -2.323  -2.004   1.498  0.00  0.00     0.053 C 
ATOM      9  C   UNL d   1      -3.531  -1.898   2.416  0.00  0.00     0.018 C 
ENDBRANCH   1   8
TORSDOF 1
ENDMDL
