MODEL 1
REMARK minimizedAffinity 14.2206879
REMARK minimizedRMSD -1
REMARK  1 active torsions:
REMARK  status: ('A' for Active; 'I' for Inactive)
REMARK    1  A    between atoms: C1_2  and  C2_3 
ROOT
ATOM      1  C2  UNL d   1      -1.945  -0.782   2.332  0.00  0.00    -0.073 A 
ATOM      2  C3  UNL d   1      -1.832   0.523   2.823  0.00  0.00    -0.002 A 
ATOM      3  C4  UNL d   1      -0.582   1.045   3.158  0.00  0.00     0.004 A 
ATOM      4  C5  UNL d   1       0.567   0.271   2.999  0.00  0.00    -0.004 A 
ATOM      5  C6  UNL d   1       0.476  -1.032   2.498  0.00  0.00    -0.075 A 
ATOM      6  C7  UNL d   1       1.703  -1.878   2.323  0.00  0.00     0.076 C 
ATOM      7  C8  UNL d   1      -0.783  -1.549   2.166  0.00  0.00     0.001 A 
ENDROOT
BRANCH   1   8
ATOM      8  C1  UNL d   1      -3.292  -1.347   1.962  0.00  0.00     0.053 C 
ATOM      9  C   UNL d   1      -3.605  -2.622   2.729  0.00  0.00     0.018 C 
ENDBRANCH   1   8
TORSDOF 1
ENDMDL
