MODEL 1
REMARK minimizedAffinity 10.0955839
REMARK minimizedRMSD -1
REMARK  1 active torsions:
REMARK  status: ('A' for Active; 'I' for Inactive)
REMARK    1  A    between atoms: C1_2  and  C2_3 
ROOT
ATOM      1  C2  UNL d   1      -1.338  -3.467  -5.314  0.00  0.00    -0.073 A 
ATOM      2  C3  UNL d   1      -0.498  -2.583  -5.999  0.00  0.00    -0.002 A 
ATOM      3  C4  UNL d   1       0.008  -1.451  -5.358  0.00  0.00     0.004 A 
ATOM      4  C5  UNL d   1      -0.315  -1.196  -4.026  0.00  0.00    -0.004 A 
ATOM      5  C6  UNL d   1      -1.144  -2.074  -3.320  0.00  0.00    -0.075 A 
ATOM      6  C7  UNL d   1      -1.502  -1.813  -1.887  0.00  0.00     0.076 C 
ATOM      7  C8  UNL d   1      -1.650  -3.207  -3.972  0.00  0.00     0.001 A 
ENDROOT
BRANCH   1   8
ATOM      8  C1  UNL d   1      -1.882  -4.694  -6.000  0.00  0.00     0.053 C 
ATOM      9  C   UNL d   1      -1.127  -5.952  -5.601  0.00  0.00     0.018 C 
ENDBRANCH   1   8
TORSDOF 1
ENDMDL
