MODEL 1
REMARK minimizedAffinity 12.407074
REMARK minimizedRMSD -1
REMARK  1 active torsions:
REMARK  status: ('A' for Active; 'I' for Inactive)
REMARK    1  A    between atoms: C1_2  and  C2_3 
ROOT
ATOM      1  C2  UNL d   1       3.177   0.218  -4.917  0.00  0.00    -0.073 A 
ATOM      2  C3  UNL d   1       3.776  -1.046  -4.937  0.00  0.00    -0.002 A 
ATOM      3  C4  UNL d   1       3.037  -2.182  -4.605  0.00  0.00     0.004 A 
ATOM      4  C5  UNL d   1       1.691  -2.067  -4.257  0.00  0.00    -0.004 A 
ATOM      5  C6  UNL d   1       1.071  -0.814  -4.243  0.00  0.00    -0.075 A 
ATOM      6  C7  UNL d   1      -0.375  -0.673  -3.868  0.00  0.00     0.076 C 
ATOM      7  C8  UNL d   1       1.821   0.323  -4.575  0.00  0.00     0.001 A 
ENDROOT
BRANCH   1   8
ATOM      8  C1  UNL d   1       3.969   1.447  -5.281  0.00  0.00     0.053 C 
ATOM      9  C   UNL d   1       5.264   1.099  -5.998  0.00  0.00     0.018 C 
ENDBRANCH   1   8
TORSDOF 1
ENDMDL
