MODEL 1
REMARK minimizedAffinity 16.7288513
REMARK minimizedRMSD -1
REMARK  1 active torsions:
REMARK  status: ('A' for Active; 'I' for Inactive)
REMARK    1  A    between atoms: C1_2  and  C2_3 
ROOT
ATOM      1  C2  UNL d   1      -0.673   1.354   3.793  0.00  0.00    -0.073 A 
ATOM      2  C3  UNL d   1      -1.719   1.058   2.912  0.00  0.00    -0.002 A 
ATOM      3  C4  UNL d   1      -1.767  -0.179   2.267  0.00  0.00     0.004 A 
ATOM      4  C5  UNL d   1      -0.777  -1.132   2.501  0.00  0.00    -0.004 A 
ATOM      5  C6  UNL d   1       0.270  -0.859   3.388  0.00  0.00    -0.075 A 
ATOM      6  C7  UNL d   1       1.345  -1.873   3.649  0.00  0.00     0.076 C 
ATOM      7  C8  UNL d   1       0.313   0.386   4.030  0.00  0.00     0.001 A 
ENDROOT
BRANCH   1   8
ATOM      8  C1  UNL d   1      -0.620   2.686   4.497  0.00  0.00     0.053 C 
ATOM      9  C   UNL d   1      -0.437   2.530   5.998  0.00  0.00     0.018 C 
ENDBRANCH   1   8
TORSDOF 1
ENDMDL
