MODEL 1
REMARK minimizedAffinity 9.42421246
REMARK minimizedRMSD -1
REMARK  1 active torsions:
REMARK  status: ('A' for Active; 'I' for Inactive)
REMARK    1  A    between atoms: C1_2  and  C2_3 
ROOT
ATOM      1  C2  UNL d   1       1.169  -1.707   4.227  0.00  0.00    -0.073 A 
ATOM      2  C3  UNL d   1       0.244  -1.665   3.178  0.00  0.00    -0.002 A 
ATOM      3  C4  UNL d   1       0.317  -0.660   2.212  0.00  0.00     0.004 A 
ATOM      4  C5  UNL d   1       1.319   0.307   2.281  0.00  0.00    -0.004 A 
ATOM      5  C6  UNL d   1       2.261   0.276   3.315  0.00  0.00    -0.075 A 
ATOM      6  C7  UNL d   1       3.344   1.310   3.405  0.00  0.00     0.076 C 
ATOM      7  C8  UNL d   1       2.179  -0.735   4.283  0.00  0.00     0.001 A 
ENDROOT
BRANCH   1   8
ATOM      8  C1  UNL d   1       1.098  -2.794   5.268  0.00  0.00     0.053 C 
ATOM      9  C   UNL d   1       2.467  -3.129   5.838  0.00  0.00     0.018 C 
ENDBRANCH   1   8
TORSDOF 1
ENDMDL
