MODEL 1
REMARK minimizedAffinity -3.82561564
REMARK minimizedRMSD -1
REMARK  0 active torsions:
REMARK  status: ('A' for Active; 'I' for Inactive)
ROOT
ATOM      1  C   UNL d   1       0.758  -0.681  -0.811  0.00  0.00     0.078 C 
ATOM      2  C1  UNL d   1      -0.036   0.204   0.102  0.00  0.00    -0.077 A 
ATOM      3  C2  UNL d   1      -1.181   0.869  -0.355  0.00  0.00    -0.001 A 
ATOM      4  C3  UNL d   1      -1.905   1.698   0.503  0.00  0.00     0.003 A 
ATOM      5  C4  UNL d   1      -1.493   1.869   1.823  0.00  0.00    -0.005 A 
ATOM      6  C5  UNL d   1      -0.355   1.213   2.286  0.00  0.00     0.003 A 
ATOM      7  C6  UNL d   1       0.371   0.384   1.429  0.00  0.00    -0.001 A 
ENDROOT
TORSDOF 0
ENDMDL
