MODEL 1
REMARK minimizedAffinity -4.50742912
REMARK minimizedRMSD -1
REMARK  0 active torsions:
REMARK  status: ('A' for Active; 'I' for Inactive)
ROOT
ATOM      1  C   UNL d   1       0.053  -0.979  -0.845  0.00  0.00     0.078 C 
ATOM      2  C1  UNL d   1      -0.258   0.117   0.130  0.00  0.00    -0.077 A 
ATOM      3  C2  UNL d   1      -1.000   1.239  -0.258  0.00  0.00    -0.001 A 
ATOM      4  C3  UNL d   1      -1.274   2.256   0.658  0.00  0.00     0.003 A 
ATOM      5  C4  UNL d   1      -0.808   2.162   1.968  0.00  0.00    -0.005 A 
ATOM      6  C5  UNL d   1      -0.067   1.050   2.363  0.00  0.00     0.003 A 
ATOM      7  C6  UNL d   1       0.208   0.032   1.448  0.00  0.00    -0.001 A 
ENDROOT
TORSDOF 0
ENDMDL
