MODEL 1
REMARK minimizedAffinity -3.71628428
REMARK minimizedRMSD -1
REMARK  0 active torsions:
REMARK  status: ('A' for Active; 'I' for Inactive)
ROOT
ATOM      1  C   UNL d   1       0.055   0.697   1.558  0.00  0.00     0.078 C 
ATOM      2  C1  UNL d   1       0.368   0.611   0.094  0.00  0.00    -0.077 A 
ATOM      3  C2  UNL d   1       1.205  -0.393  -0.407  0.00  0.00    -0.001 A 
ATOM      4  C3  UNL d   1       1.496  -0.454  -1.771  0.00  0.00     0.003 A 
ATOM      5  C4  UNL d   1       0.954   0.486  -2.645  0.00  0.00    -0.005 A 
ATOM      6  C5  UNL d   1       0.121   1.491  -2.155  0.00  0.00     0.003 A 
ATOM      7  C6  UNL d   1      -0.170   1.554  -0.792  0.00  0.00    -0.001 A 
ENDROOT
TORSDOF 0
ENDMDL
