MODEL 1
REMARK minimizedAffinity -4.80497885
REMARK minimizedRMSD -1
REMARK  0 active torsions:
REMARK  status: ('A' for Active; 'I' for Inactive)
ROOT
ATOM      1  C   UNL d   1       0.580  -0.736  -1.140  0.00  0.00     0.078 C 
ATOM      2  C1  UNL d   1      -0.078   0.311  -0.292  0.00  0.00    -0.077 A 
ATOM      3  C2  UNL d   1      -1.020   1.193  -0.836  0.00  0.00    -0.001 A 
ATOM      4  C3  UNL d   1      -1.617   2.169  -0.036  0.00  0.00     0.003 A 
ATOM      5  C4  UNL d   1      -1.278   2.273   1.311  0.00  0.00    -0.005 A 
ATOM      6  C5  UNL d   1      -0.340   1.402   1.861  0.00  0.00     0.003 A 
ATOM      7  C6  UNL d   1       0.258   0.425   1.063  0.00  0.00    -0.001 A 
ENDROOT
TORSDOF 0
ENDMDL
