MODEL 1
REMARK minimizedAffinity -5.22831917
REMARK minimizedRMSD -1
REMARK  0 active torsions:
REMARK  status: ('A' for Active; 'I' for Inactive)
ROOT
ATOM      1  C   UNL d   1      -1.309   2.445   1.789  0.00  0.00     0.078 C 
ATOM      2  C1  UNL d   1      -0.695   1.207   1.205  0.00  0.00    -0.077 A 
ATOM      3  C2  UNL d   1       0.028   0.315   2.005  0.00  0.00    -0.001 A 
ATOM      4  C3  UNL d   1       0.603  -0.828   1.446  0.00  0.00     0.003 A 
ATOM      5  C4  UNL d   1       0.461  -1.088   0.085  0.00  0.00    -0.005 A 
ATOM      6  C5  UNL d   1      -0.256  -0.205  -0.720  0.00  0.00     0.003 A 
ATOM      7  C6  UNL d   1      -0.831   0.939  -0.163  0.00  0.00    -0.001 A 
ENDROOT
TORSDOF 0
ENDMDL
