MODEL 1
REMARK minimizedAffinity -4.14238262
REMARK minimizedRMSD -1
REMARK  0 active torsions:
REMARK  status: ('A' for Active; 'I' for Inactive)
ROOT
ATOM      1  C   UNL d   1      -0.142   0.365   0.320  0.00  0.00     0.078 C 
ATOM      2  C1  UNL d   1      -0.140  -0.881  -0.514  0.00  0.00    -0.077 A 
ATOM      3  C2  UNL d   1      -1.244  -1.743  -0.525  0.00  0.00    -0.001 A 
ATOM      4  C3  UNL d   1      -1.225  -2.905  -1.298  0.00  0.00     0.003 A 
ATOM      5  C4  UNL d   1      -0.103  -3.217  -2.064  0.00  0.00    -0.005 A 
ATOM      6  C5  UNL d   1       1.001  -2.367  -2.058  0.00  0.00     0.003 A 
ATOM      7  C6  UNL d   1       0.983  -1.204  -1.285  0.00  0.00    -0.001 A 
ENDROOT
TORSDOF 0
ENDMDL
