MODEL 1
REMARK minimizedAffinity -3.96403432
REMARK minimizedRMSD -1
REMARK  0 active torsions:
REMARK  status: ('A' for Active; 'I' for Inactive)
ROOT
ATOM      1  C   UNL d   1       0.135  -1.269  -0.707  0.00  0.00     0.078 C 
ATOM      2  C1  UNL d   1      -0.194  -0.126   0.207  0.00  0.00    -0.077 A 
ATOM      3  C2  UNL d   1      -1.288   0.709  -0.048  0.00  0.00    -0.001 A 
ATOM      4  C3  UNL d   1      -1.577   1.775   0.805  0.00  0.00     0.003 A 
ATOM      5  C4  UNL d   1      -0.774   2.017   1.918  0.00  0.00    -0.005 A 
ATOM      6  C5  UNL d   1       0.319   1.193   2.179  0.00  0.00     0.003 A 
ATOM      7  C6  UNL d   1       0.609   0.126   1.327  0.00  0.00    -0.001 A 
ENDROOT
TORSDOF 0
ENDMDL
