MODEL 1
REMARK minimizedAffinity -4.79972696
REMARK minimizedRMSD -1
REMARK  0 active torsions:
REMARK  status: ('A' for Active; 'I' for Inactive)
ROOT
ATOM      1  C   UNL d   1       0.486  -0.852  -0.679  0.00  0.00     0.078 C 
ATOM      2  C1  UNL d   1      -0.055   0.208   0.233  0.00  0.00    -0.077 A 
ATOM      3  C2  UNL d   1      -1.070   1.074  -0.190  0.00  0.00    -0.001 A 
ATOM      4  C3  UNL d   1      -1.557   2.063   0.666  0.00  0.00     0.003 A 
ATOM      5  C4  UNL d   1      -1.034   2.196   1.951  0.00  0.00    -0.005 A 
ATOM      6  C5  UNL d   1      -0.022   1.340   2.381  0.00  0.00     0.003 A 
ATOM      7  C6  UNL d   1       0.466   0.350   1.526  0.00  0.00    -0.001 A 
ENDROOT
TORSDOF 0
ENDMDL
