MODEL 1
REMARK minimizedAffinity -2.41457319
REMARK minimizedRMSD -1
REMARK  0 active torsions:
REMARK  status: ('A' for Active; 'I' for Inactive)
ROOT
ATOM      1  C   UNL d   1      -1.817   2.282   2.154  0.00  0.00     0.078 C 
ATOM      2  C1  UNL d   1      -1.010   1.353   1.297  0.00  0.00    -0.077 A 
ATOM      3  C2  UNL d   1       0.142   0.732   1.794  0.00  0.00    -0.001 A 
ATOM      4  C3  UNL d   1       0.890  -0.123   0.982  0.00  0.00     0.003 A 
ATOM      5  C4  UNL d   1       0.494  -0.363  -0.332  0.00  0.00    -0.005 A 
ATOM      6  C5  UNL d   1      -0.649   0.253  -0.837  0.00  0.00     0.003 A 
ATOM      7  C6  UNL d   1      -1.398   1.108  -0.026  0.00  0.00    -0.001 A 
ENDROOT
TORSDOF 0
ENDMDL
