MODEL 1
REMARK minimizedAffinity -4.91006422
REMARK minimizedRMSD -1
REMARK  0 active torsions:
REMARK  status: ('A' for Active; 'I' for Inactive)
ROOT
ATOM      1  C   UNL d   1      -1.466   2.332   1.509  0.00  0.00     0.078 C 
ATOM      2  C1  UNL d   1      -0.634   1.522   0.560  0.00  0.00    -0.077 A 
ATOM      3  C2  UNL d   1       0.057   0.385   0.996  0.00  0.00    -0.001 A 
ATOM      4  C3  UNL d   1       0.835  -0.354   0.103  0.00  0.00     0.003 A 
ATOM      5  C4  UNL d   1       0.931   0.037  -1.231  0.00  0.00    -0.005 A 
ATOM      6  C5  UNL d   1       0.248   1.168  -1.674  0.00  0.00     0.003 A 
ATOM      7  C6  UNL d   1      -0.530   1.908  -0.783  0.00  0.00    -0.001 A 
ENDROOT
TORSDOF 0
ENDMDL
