MODEL 1
REMARK minimizedAffinity -3.45821118
REMARK minimizedRMSD -1
REMARK  0 active torsions:
REMARK  status: ('A' for Active; 'I' for Inactive)
ROOT
ATOM      1  C   UNL d   1       1.145  -0.498   0.431  0.00  0.00     0.078 C 
ATOM      2  C1  UNL d   1       0.172   0.643   0.452  0.00  0.00    -0.077 A 
ATOM      3  C2  UNL d   1       0.152   1.554   1.515  0.00  0.00    -0.001 A 
ATOM      4  C3  UNL d   1      -0.765   2.606   1.526  0.00  0.00     0.003 A 
ATOM      5  C4  UNL d   1      -1.670   2.757   0.477  0.00  0.00    -0.005 A 
ATOM      6  C5  UNL d   1      -1.659   1.854  -0.584  0.00  0.00     0.003 A 
ATOM      7  C6  UNL d   1      -0.742   0.802  -0.597  0.00  0.00    -0.001 A 
ENDROOT
TORSDOF 0
ENDMDL
