MODEL 1
REMARK minimizedAffinity 3.82025433
REMARK minimizedRMSD -1
REMARK  0 active torsions:
REMARK  status: ('A' for Active; 'I' for Inactive)
ROOT
ATOM      1  C   UNL d   1       0.508  -3.731  -0.332  0.00  0.00    -0.002 A 
ATOM      2  C1  UNL d   1       0.041  -4.012  -1.609  0.00  0.00     0.010 A 
ATOM      3  C2  UNL d   1      -0.678  -3.056  -2.329  0.00  0.00     0.041 A 
ATOM      4  C3  UNL d   1      -0.920  -1.800  -1.740  0.00  0.00    -0.075 A 
ATOM      5  S   UNL d   1      -1.777  -0.474  -2.434  0.00  0.00     0.015 SA
ATOM      6  C4  UNL d   1      -1.542   0.497  -1.053  0.00  0.00     0.022 A 
ATOM      7  C5  UNL d   1      -0.831  -0.158  -0.076  0.00  0.00     0.026 A 
ATOM      8  C6  UNL d   1      -0.460  -1.493  -0.456  0.00  0.00    -0.082 A 
ATOM      9  C7  UNL d   1       0.265  -2.484   0.249  0.00  0.00     0.045 A 
ENDROOT
TORSDOF 0
ENDMDL
