MODEL 1
REMARK minimizedAffinity 1.76233828
REMARK minimizedRMSD -1
REMARK  0 active torsions:
REMARK  status: ('A' for Active; 'I' for Inactive)
ROOT
ATOM      1  C   UNL d   1       2.785   0.540   3.091  0.00  0.00    -0.002 A 
ATOM      2  C1  UNL d   1       2.377  -0.725   3.490  0.00  0.00     0.010 A 
ATOM      3  C2  UNL d   1       1.408  -1.420   2.764  0.00  0.00     0.041 A 
ATOM      4  C3  UNL d   1       0.853  -0.818   1.618  0.00  0.00    -0.075 A 
ATOM      5  S   UNL d   1      -0.347  -1.483   0.573  0.00  0.00     0.015 SA
ATOM      6  C4  UNL d   1      -0.345  -0.104  -0.429  0.00  0.00     0.022 A 
ATOM      7  C5  UNL d   1       0.543   0.850   0.009  0.00  0.00     0.026 A 
ATOM      8  C6  UNL d   1       1.249   0.454   1.195  0.00  0.00    -0.082 A 
ATOM      9  C7  UNL d   1       2.232   1.134   1.953  0.00  0.00     0.045 A 
ENDROOT
TORSDOF 0
ENDMDL
