MODEL 1
REMARK minimizedAffinity -0.618416786
REMARK minimizedRMSD -1
REMARK  0 active torsions:
REMARK  status: ('A' for Active; 'I' for Inactive)
ROOT
ATOM      1  C   UNL d   1       2.745   1.711   1.274  0.00  0.00    -0.002 A 
ATOM      2  C1  UNL d   1       1.871   1.677   0.196  0.00  0.00     0.010 A 
ATOM      3  C2  UNL d   1       1.012   0.592   0.012  0.00  0.00     0.041 A 
ATOM      4  C3  UNL d   1       1.045  -0.469   0.939  0.00  0.00    -0.075 A 
ATOM      5  S   UNL d   1       0.085  -1.900   0.916  0.00  0.00     0.015 SA
ATOM      6  C4  UNL d   1       0.811  -2.500   2.336  0.00  0.00     0.022 A 
ATOM      7  C5  UNL d   1       1.765  -1.642   2.829  0.00  0.00     0.026 A 
ATOM      8  C6  UNL d   1       1.916  -0.457   2.032  0.00  0.00    -0.082 A 
ATOM      9  C7  UNL d   1       2.775   0.657   2.191  0.00  0.00     0.045 A 
ENDROOT
TORSDOF 0
ENDMDL
