MODEL 1
REMARK minimizedAffinity -1.7147423
REMARK minimizedRMSD -1
REMARK  0 active torsions:
REMARK  status: ('A' for Active; 'I' for Inactive)
ROOT
ATOM      1  O1  BZF d   1      -1.065  -1.028   2.356  0.00  0.00    -0.204 OA
ATOM      2  C2  BZF d   1      -1.743  -0.718   1.193  0.00  0.00     0.174 A 
ATOM      3  C3  BZF d   1      -0.890  -0.286   0.242  0.00  0.00    -0.012 A 
ATOM      4  C3A BZF d   1       0.413  -0.414   0.819  0.00  0.00    -0.107 A 
ATOM      5  C4  BZF d   1       1.673  -0.159   0.358  0.00  0.00     0.055 A 
ATOM      6  C5  BZF d   1       2.729  -0.322   1.197  0.00  0.00    -0.016 A 
ATOM      7  C6  BZF d   1       2.561  -0.735   2.503  0.00  0.00     0.022 A 
ATOM      8  C7  BZF d   1       1.331  -1.006   3.004  0.00  0.00     0.029 A 
ATOM      9  C7A BZF d   1       0.265  -0.873   2.148  0.00  0.00     0.058 A 
ENDROOT
TORSDOF 0
ENDMDL
