MODEL 1
REMARK minimizedAffinity 2.38211346
REMARK minimizedRMSD -1
REMARK  0 active torsions:
REMARK  status: ('A' for Active; 'I' for Inactive)
ROOT
ATOM      1  O1  BZF d   1       3.191  -0.716   0.976  0.00  0.00    -0.204 OA
ATOM      2  C2  BZF d   1       3.229  -0.032  -0.223  0.00  0.00     0.174 A 
ATOM      3  C3  BZF d   1       1.983   0.249  -0.654  0.00  0.00    -0.012 A 
ATOM      4  C3A BZF d   1       1.113  -0.212   0.384  0.00  0.00    -0.107 A 
ATOM      5  C4  BZF d   1      -0.243  -0.200   0.548  0.00  0.00     0.055 A 
ATOM      6  C5  BZF d   1      -0.781  -0.797   1.644  0.00  0.00    -0.016 A 
ATOM      7  C6  BZF d   1       0.005  -1.418   2.592  0.00  0.00     0.022 A 
ATOM      8  C7  BZF d   1       1.355  -1.452   2.476  0.00  0.00     0.029 A 
ATOM      9  C7A BZF d   1       1.904  -0.821   1.386  0.00  0.00     0.058 A 
ENDROOT
TORSDOF 0
ENDMDL
