MODEL 1
REMARK minimizedAffinity -4.06744957
REMARK minimizedRMSD -1
REMARK  0 active torsions:
REMARK  status: ('A' for Active; 'I' for Inactive)
ROOT
ATOM      1  O1  BZF d   1       0.722   1.488  -0.264  0.00  0.00    -0.204 OA
ATOM      2  C2  BZF d   1      -0.134   0.917  -1.186  0.00  0.00     0.174 A 
ATOM      3  C3  BZF d   1      -0.501  -0.321  -0.796  0.00  0.00    -0.012 A 
ATOM      4  C3A BZF d   1       0.095  -0.501   0.493  0.00  0.00    -0.107 A 
ATOM      5  C4  BZF d   1       0.081  -1.523   1.399  0.00  0.00     0.055 A 
ATOM      6  C5  BZF d   1       0.825  -1.412   2.530  0.00  0.00    -0.016 A 
ATOM      7  C6  BZF d   1       1.598  -0.298   2.785  0.00  0.00     0.022 A 
ATOM      8  C7  BZF d   1       1.639   0.743   1.919  0.00  0.00     0.029 A 
ATOM      9  C7A BZF d   1       0.862   0.648   0.790  0.00  0.00     0.058 A 
ENDROOT
TORSDOF 0
ENDMDL
