MODEL 1
REMARK minimizedAffinity -3.2019155
REMARK minimizedRMSD -1
REMARK  0 active torsions:
REMARK  status: ('A' for Active; 'I' for Inactive)
ROOT
ATOM      1  O1  BZF d   1       0.079  -1.019   2.682  0.00  0.00    -0.204 OA
ATOM      2  C2  BZF d   1       1.416  -0.778   2.934  0.00  0.00     0.174 A 
ATOM      3  C3  BZF d   1       1.998  -0.168   1.881  0.00  0.00    -0.012 A 
ATOM      4  C3A BZF d   1       0.939   0.065   0.948  0.00  0.00    -0.107 A 
ATOM      5  C4  BZF d   1       0.885   0.653  -0.284  0.00  0.00     0.055 A 
ATOM      6  C5  BZF d   1      -0.291   0.654  -0.964  0.00  0.00    -0.016 A 
ATOM      7  C6  BZF d   1      -1.430   0.074  -0.445  0.00  0.00     0.022 A 
ATOM      8  C7  BZF d   1      -1.427  -0.516   0.775  0.00  0.00     0.029 A 
ATOM      9  C7A BZF d   1      -0.248  -0.490   1.479  0.00  0.00     0.058 A 
ENDROOT
TORSDOF 0
ENDMDL
