MODEL 1
REMARK minimizedAffinity -3.41645575
REMARK minimizedRMSD -1
REMARK  0 active torsions:
REMARK  status: ('A' for Active; 'I' for Inactive)
ROOT
ATOM      1  O1  BZF d   1      -0.113  -1.144   2.582  0.00  0.00    -0.204 OA
ATOM      2  C2  BZF d   1       1.249  -1.291   2.760  0.00  0.00     0.174 A 
ATOM      3  C3  BZF d   1       1.919  -0.918   1.651  0.00  0.00    -0.012 A 
ATOM      4  C3A BZF d   1       0.919  -0.426   0.754  0.00  0.00    -0.107 A 
ATOM      5  C4  BZF d   1       0.964   0.101  -0.505  0.00  0.00     0.055 A 
ATOM      6  C5  BZF d   1      -0.200   0.416  -1.131  0.00  0.00    -0.016 A 
ATOM      7  C6  BZF d   1      -1.426   0.211  -0.531  0.00  0.00     0.022 A 
ATOM      8  C7  BZF d   1      -1.521  -0.304   0.718  0.00  0.00     0.029 A 
ATOM      9  C7A BZF d   1      -0.345  -0.593   1.367  0.00  0.00     0.058 A 
ENDROOT
TORSDOF 0
ENDMDL
