MODEL 1
REMARK minimizedAffinity 0.835675716
REMARK minimizedRMSD -1
REMARK  0 active torsions:
REMARK  status: ('A' for Active; 'I' for Inactive)
ROOT
ATOM      1  O1  BZF d   1       1.782  -1.370  -0.699  0.00  0.00    -0.204 OA
ATOM      2  C2  BZF d   1       2.550  -2.367  -0.129  0.00  0.00     0.174 A 
ATOM      3  C3  BZF d   1       2.184  -2.580   1.151  0.00  0.00    -0.012 A 
ATOM      4  C3A BZF d   1       1.059  -1.722   1.369  0.00  0.00    -0.107 A 
ATOM      5  C4  BZF d   1       0.246  -1.495   2.442  0.00  0.00     0.055 A 
ATOM      6  C5  BZF d   1      -0.716  -0.539   2.350  0.00  0.00    -0.016 A 
ATOM      7  C6  BZF d   1      -0.889   0.210   1.205  0.00  0.00     0.022 A 
ATOM      8  C7  BZF d   1      -0.110   0.017   0.113  0.00  0.00     0.029 A 
ATOM      9  C7A BZF d   1       0.842  -0.971   0.191  0.00  0.00     0.058 A 
ENDROOT
TORSDOF 0
ENDMDL
