MODEL 1
REMARK minimizedAffinity -0.996055126
REMARK minimizedRMSD -1
REMARK  0 active torsions:
REMARK  status: ('A' for Active; 'I' for Inactive)
ROOT
ATOM      1  O1  BZF d   1       2.093  -1.919  -0.292  0.00  0.00    -0.204 OA
ATOM      2  C2  BZF d   1       2.674  -2.717   0.674  0.00  0.00     0.174 A 
ATOM      3  C3  BZF d   1       2.051  -2.563   1.860  0.00  0.00    -0.012 A 
ATOM      4  C3A BZF d   1       0.957  -1.678   1.598  0.00  0.00    -0.107 A 
ATOM      5  C4  BZF d   1      -0.038  -1.159   2.377  0.00  0.00     0.055 A 
ATOM      6  C5  BZF d   1      -0.906  -0.267   1.831  0.00  0.00    -0.016 A 
ATOM      7  C6  BZF d   1      -0.805   0.131   0.514  0.00  0.00     0.022 A 
ATOM      8  C7  BZF d   1       0.162  -0.360  -0.298  0.00  0.00     0.029 A 
ATOM      9  C7A BZF d   1       1.020  -1.286   0.241  0.00  0.00     0.058 A 
ENDROOT
TORSDOF 0
ENDMDL
