MODEL 1
REMARK minimizedAffinity -2.73623776
REMARK minimizedRMSD -1
REMARK  0 active torsions:
REMARK  status: ('A' for Active; 'I' for Inactive)
ROOT
ATOM      1  O1  BZF d   1      -0.553   0.021  -0.689  0.00  0.00    -0.204 OA
ATOM      2  C2  BZF d   1      -1.819  -0.076  -0.144  0.00  0.00     0.174 A 
ATOM      3  C3  BZF d   1      -1.788  -0.750   1.023  0.00  0.00    -0.012 A 
ATOM      4  C3A BZF d   1      -0.403  -1.015   1.267  0.00  0.00    -0.107 A 
ATOM      5  C4  BZF d   1       0.269  -1.640   2.278  0.00  0.00     0.055 A 
ATOM      6  C5  BZF d   1       1.615  -1.797   2.178  0.00  0.00    -0.016 A 
ATOM      7  C6  BZF d   1       2.319  -1.347   1.081  0.00  0.00     0.022 A 
ATOM      8  C7  BZF d   1       1.697  -0.716   0.055  0.00  0.00     0.029 A 
ATOM      9  C7A BZF d   1       0.341  -0.527   0.168  0.00  0.00     0.058 A 
ENDROOT
TORSDOF 0
ENDMDL
