MODEL 1
REMARK minimizedAffinity -0.808398187
REMARK minimizedRMSD -1
REMARK  0 active torsions:
REMARK  status: ('A' for Active; 'I' for Inactive)
ROOT
ATOM      1  O1  BZF d   1       0.151   0.334  -2.826  0.00  0.00    -0.204 OA
ATOM      2  C2  BZF d   1       0.026  -0.080  -1.514  0.00  0.00     0.174 A 
ATOM      3  C3  BZF d   1      -0.743   0.777  -0.813  0.00  0.00    -0.012 A 
ATOM      4  C3A BZF d   1      -1.198   1.741  -1.767  0.00  0.00    -0.107 A 
ATOM      5  C4  BZF d   1      -2.008   2.837  -1.681  0.00  0.00     0.055 A 
ATOM      6  C5  BZF d   1      -2.194   3.609  -2.783  0.00  0.00    -0.016 A 
ATOM      7  C6  BZF d   1      -1.582   3.319  -3.985  0.00  0.00     0.022 A 
ATOM      8  C7  BZF d   1      -0.773   2.240  -4.120  0.00  0.00     0.029 A 
ATOM      9  C7A BZF d   1      -0.609   1.439  -3.017  0.00  0.00     0.058 A 
ENDROOT
TORSDOF 0
ENDMDL
