MODEL 1
REMARK minimizedAffinity -1.36963975
REMARK minimizedRMSD -1
REMARK  0 active torsions:
REMARK  status: ('A' for Active; 'I' for Inactive)
ROOT
ATOM      1  C   UNL d   1       0.043   0.238   0.884  0.00  0.00     0.023 A 
ATOM      2  C1  UNL d   1       0.468  -0.963   0.316  0.00  0.00     0.003 A 
ATOM      3  C2  UNL d   1      -0.262  -1.541  -0.724  0.00  0.00     0.048 A 
ATOM      4  C3  UNL d   1      -1.416  -0.913  -1.192  0.00  0.00     0.023 A 
ATOM      5  C4  UNL d   1      -1.844   0.290  -0.628  0.00  0.00     0.048 A 
ATOM      6  C5  UNL d   1      -1.111   0.864   0.413  0.00  0.00     0.003 A 
ATOM      7  I   UNL d   1      -2.504  -1.772  -2.740  0.00  0.00    -0.146 I 
ENDROOT
TORSDOF 0
ENDMDL
