MODEL 1
REMARK minimizedAffinity -3.70954752
REMARK minimizedRMSD -1
REMARK  0 active torsions:
REMARK  status: ('A' for Active; 'I' for Inactive)
ROOT
ATOM      1  C   UNL d   1       1.139   1.431   1.712  0.00  0.00     0.023 A 
ATOM      2  C1  UNL d   1       1.815   0.529   0.891  0.00  0.00     0.003 A 
ATOM      3  C2  UNL d   1       1.103  -0.262  -0.014  0.00  0.00     0.048 A 
ATOM      4  C3  UNL d   1      -0.284  -0.144  -0.093  0.00  0.00     0.023 A 
ATOM      5  C4  UNL d   1      -0.964   0.759   0.726  0.00  0.00     0.048 A 
ATOM      6  C5  UNL d   1      -0.249   1.546   1.630  0.00  0.00     0.003 A 
ATOM      7  I   UNL d   1      -1.345  -1.319  -1.440  0.00  0.00    -0.146 I 
ENDROOT
TORSDOF 0
ENDMDL
