MODEL 1
REMARK minimizedAffinity -2.598526
REMARK minimizedRMSD -1
REMARK  0 active torsions:
REMARK  status: ('A' for Active; 'I' for Inactive)
ROOT
ATOM      1  C   UNL d   1      -0.008   1.035   1.034  0.00  0.00     0.023 A 
ATOM      2  C1  UNL d   1      -0.627   1.665  -0.046  0.00  0.00     0.003 A 
ATOM      3  C2  UNL d   1      -1.205   0.903  -1.063  0.00  0.00     0.048 A 
ATOM      4  C3  UNL d   1      -1.161  -0.489  -0.994  0.00  0.00     0.023 A 
ATOM      5  C4  UNL d   1      -0.543  -1.124   0.084  0.00  0.00     0.048 A 
ATOM      6  C5  UNL d   1       0.034  -0.358   1.099  0.00  0.00     0.003 A 
ATOM      7  I   UNL d   1      -2.021  -1.625  -2.507  0.00  0.00    -0.146 I 
ENDROOT
TORSDOF 0
ENDMDL
