MODEL 1
REMARK minimizedAffinity -2.47345328
REMARK minimizedRMSD -1
REMARK  0 active torsions:
REMARK  status: ('A' for Active; 'I' for Inactive)
ROOT
ATOM      1  C   UNL d   1       1.383   0.801   1.223  0.00  0.00     0.023 A 
ATOM      2  C1  UNL d   1       0.053   0.671   1.621  0.00  0.00     0.003 A 
ATOM      3  C2  UNL d   1      -0.837  -0.082   0.853  0.00  0.00     0.048 A 
ATOM      4  C3  UNL d   1      -0.390  -0.702  -0.314  0.00  0.00     0.023 A 
ATOM      5  C4  UNL d   1       0.940  -0.575  -0.716  0.00  0.00     0.048 A 
ATOM      6  C5  UNL d   1       1.826   0.179   0.055  0.00  0.00     0.003 A 
ATOM      7  I   UNL d   1      -1.713  -1.823  -1.460  0.00  0.00    -0.146 I 
ENDROOT
TORSDOF 0
ENDMDL
