MODEL 1
REMARK minimizedAffinity -1.97368145
REMARK minimizedRMSD -1
REMARK  0 active torsions:
REMARK  status: ('A' for Active; 'I' for Inactive)
ROOT
ATOM      1  C   UNL d   1      -3.072  -1.965  -3.130  0.00  0.00     0.023 A 
ATOM      2  C1  UNL d   1      -2.921  -2.258  -1.775  0.00  0.00     0.003 A 
ATOM      3  C2  UNL d   1      -1.671  -2.128  -1.166  0.00  0.00     0.048 A 
ATOM      4  C3  UNL d   1      -0.577  -1.703  -1.918  0.00  0.00     0.023 A 
ATOM      5  C4  UNL d   1      -0.723  -1.407  -3.274  0.00  0.00     0.048 A 
ATOM      6  C5  UNL d   1      -1.974  -1.539  -3.879  0.00  0.00     0.003 A 
ATOM      7  I   UNL d   1       1.284  -1.508  -1.014  0.00  0.00    -0.146 I 
ENDROOT
TORSDOF 0
ENDMDL
