MODEL 1
REMARK minimizedAffinity -0.0717629343
REMARK minimizedRMSD -1
REMARK  0 active torsions:
REMARK  status: ('A' for Active; 'I' for Inactive)
ROOT
ATOM      1  C   UNL d   1      -0.435   0.473   1.036  0.00  0.00     0.023 A 
ATOM      2  C1  UNL d   1       0.160  -0.716   0.614  0.00  0.00     0.003 A 
ATOM      3  C2  UNL d   1      -0.337  -1.388  -0.504  0.00  0.00     0.048 A 
ATOM      4  C3  UNL d   1      -1.428  -0.865  -1.198  0.00  0.00     0.023 A 
ATOM      5  C4  UNL d   1      -2.025   0.325  -0.780  0.00  0.00     0.048 A 
ATOM      6  C5  UNL d   1      -1.526   0.993   0.340  0.00  0.00     0.003 A 
ATOM      7  I   UNL d   1      -2.168  -1.863  -2.863  0.00  0.00    -0.146 I 
ENDROOT
TORSDOF 0
ENDMDL
