MODEL 1
REMARK minimizedAffinity -1.3797121
REMARK minimizedRMSD -1
REMARK  0 active torsions:
REMARK  status: ('A' for Active; 'I' for Inactive)
ROOT
ATOM      1  C   UNL d   1       0.205   1.880   1.871  0.00  0.00     0.023 A 
ATOM      2  C1  UNL d   1      -1.077   1.978   1.328  0.00  0.00     0.003 A 
ATOM      3  C2  UNL d   1      -1.478   1.100   0.319  0.00  0.00     0.048 A 
ATOM      4  C3  UNL d   1      -0.592   0.126  -0.142  0.00  0.00     0.023 A 
ATOM      5  C4  UNL d   1       0.690   0.024   0.398  0.00  0.00     0.048 A 
ATOM      6  C5  UNL d   1       1.087   0.905   1.406  0.00  0.00     0.003 A 
ATOM      7  I   UNL d   1      -1.187  -1.182  -1.644  0.00  0.00    -0.146 I 
ENDROOT
TORSDOF 0
ENDMDL
