MODEL 1
REMARK minimizedAffinity -0.33645305
REMARK minimizedRMSD -1
REMARK  0 active torsions:
REMARK  status: ('A' for Active; 'I' for Inactive)
ROOT
ATOM      1  C   UNL d   1      -2.423  -1.519  -3.176  0.00  0.00     0.023 A 
ATOM      2  C1  UNL d   1      -2.852  -1.967  -1.927  0.00  0.00     0.003 A 
ATOM      3  C2  UNL d   1      -2.218  -1.516  -0.767  0.00  0.00     0.048 A 
ATOM      4  C3  UNL d   1      -1.156  -0.618  -0.865  0.00  0.00     0.023 A 
ATOM      5  C4  UNL d   1      -0.724  -0.167  -2.113  0.00  0.00     0.048 A 
ATOM      6  C5  UNL d   1      -1.361  -0.621  -3.269  0.00  0.00     0.003 A 
ATOM      7  I   UNL d   1      -0.210   0.055   0.860  0.00  0.00    -0.146 I 
ENDROOT
TORSDOF 0
ENDMDL
