MODEL 1
REMARK minimizedAffinity -0.663669527
REMARK minimizedRMSD -1
REMARK  0 active torsions:
REMARK  status: ('A' for Active; 'I' for Inactive)
ROOT
ATOM      1  C   UNL d   1       0.892   0.709   1.105  0.00  0.00     0.023 A 
ATOM      2  C1  UNL d   1      -0.484   0.789   1.318  0.00  0.00     0.003 A 
ATOM      3  C2  UNL d   1      -1.358   0.031   0.536  0.00  0.00     0.048 A 
ATOM      4  C3  UNL d   1      -0.848  -0.806  -0.457  0.00  0.00     0.023 A 
ATOM      5  C4  UNL d   1       0.528  -0.890  -0.672  0.00  0.00     0.048 A 
ATOM      6  C5  UNL d   1       1.398  -0.129   0.111  0.00  0.00     0.003 A 
ATOM      7  I   UNL d   1      -2.147  -1.936  -1.622  0.00  0.00    -0.146 I 
ENDROOT
TORSDOF 0
ENDMDL
