MODEL 1
REMARK minimizedAffinity -2.95970988
REMARK minimizedRMSD -1
REMARK  0 active torsions:
REMARK  status: ('A' for Active; 'I' for Inactive)
ROOT
ATOM      1  C   UNL d   1      -2.679  -2.265  -2.804  0.00  0.00     0.023 A 
ATOM      2  C1  UNL d   1      -3.340  -2.113  -1.585  0.00  0.00     0.003 A 
ATOM      3  C2  UNL d   1      -2.700  -1.482  -0.516  0.00  0.00     0.048 A 
ATOM      4  C3  UNL d   1      -1.399  -1.006  -0.673  0.00  0.00     0.023 A 
ATOM      5  C4  UNL d   1      -0.734  -1.155  -1.890  0.00  0.00     0.048 A 
ATOM      6  C5  UNL d   1      -1.377  -1.787  -2.956  0.00  0.00     0.003 A 
ATOM      7  I   UNL d   1      -0.445  -0.067   0.917  0.00  0.00    -0.146 I 
ENDROOT
TORSDOF 0
ENDMDL
