MODEL 1
REMARK minimizedAffinity -2.91443443
REMARK minimizedRMSD -1
REMARK  0 active torsions:
REMARK  status: ('A' for Active; 'I' for Inactive)
ROOT
ATOM      1  C   UNL d   1       1.772   1.524   1.762  0.00  0.00     0.023 A 
ATOM      2  C1  UNL d   1       0.386   1.434   1.891  0.00  0.00     0.003 A 
ATOM      3  C2  UNL d   1      -0.335   0.549   1.086  0.00  0.00     0.048 A 
ATOM      4  C3  UNL d   1       0.336  -0.242   0.155  0.00  0.00     0.023 A 
ATOM      5  C4  UNL d   1       1.722  -0.156   0.023  0.00  0.00     0.048 A 
ATOM      6  C5  UNL d   1       2.439   0.731   0.829  0.00  0.00     0.003 A 
ATOM      7  I   UNL d   1      -0.736  -1.559  -1.044  0.00  0.00    -0.146 I 
ENDROOT
TORSDOF 0
ENDMDL
