MODEL 1
REMARK minimizedAffinity -0.807801485
REMARK minimizedRMSD -1
REMARK  0 active torsions:
REMARK  status: ('A' for Active; 'I' for Inactive)
ROOT
ATOM      1  C   UNL d   1      -1.198  -2.483  -2.898  0.00  0.00     0.023 A 
ATOM      2  C1  UNL d   1       0.124  -2.274  -2.505  0.00  0.00     0.003 A 
ATOM      3  C2  UNL d   1       0.402  -1.514  -1.366  0.00  0.00     0.048 A 
ATOM      4  C3  UNL d   1      -0.646  -0.968  -0.626  0.00  0.00     0.023 A 
ATOM      5  C4  UNL d   1      -1.970  -1.176  -1.016  0.00  0.00     0.048 A 
ATOM      6  C5  UNL d   1      -2.243  -1.935  -2.155  0.00  0.00     0.003 A 
ATOM      7  I   UNL d   1      -0.233   0.163   1.068  0.00  0.00    -0.146 I 
ENDROOT
TORSDOF 0
ENDMDL
