MODEL 1
REMARK minimizedAffinity -3.75786257
REMARK minimizedRMSD -1
REMARK  0 active torsions:
REMARK  status: ('A' for Active; 'I' for Inactive)
ROOT
ATOM      1  C   UNL d   1      -1.877  -1.209  -2.143  0.00  0.00     0.023 A 
ATOM      2  C1  UNL d   1      -1.914   0.186  -2.152  0.00  0.00     0.003 A 
ATOM      3  C2  UNL d   1      -1.333   0.908  -1.108  0.00  0.00     0.048 A 
ATOM      4  C3  UNL d   1      -0.714   0.230  -0.059  0.00  0.00     0.023 A 
ATOM      5  C4  UNL d   1      -0.674  -1.165  -0.045  0.00  0.00     0.048 A 
ATOM      6  C5  UNL d   1      -1.258  -1.883  -1.090  0.00  0.00     0.003 A 
ATOM      7  I   UNL d   1       0.153   1.303   1.496  0.00  0.00    -0.146 I 
ENDROOT
TORSDOF 0
ENDMDL
