MODEL 1
REMARK minimizedAffinity 0.287849694
REMARK minimizedRMSD -1
REMARK  0 active torsions:
REMARK  status: ('A' for Active; 'I' for Inactive)
ROOT
ATOM      1  C   UNL d   1      -1.721  -2.149  -3.348  0.00  0.00     0.023 A 
ATOM      2  C1  UNL d   1      -2.711  -1.969  -2.381  0.00  0.00     0.003 A 
ATOM      3  C2  UNL d   1      -2.366  -1.535  -1.100  0.00  0.00     0.048 A 
ATOM      4  C3  UNL d   1      -1.029  -1.281  -0.792  0.00  0.00     0.023 A 
ATOM      5  C4  UNL d   1      -0.036  -1.458  -1.756  0.00  0.00     0.048 A 
ATOM      6  C5  UNL d   1      -0.386  -1.894  -3.036  0.00  0.00     0.003 A 
ATOM      7  I   UNL d   1      -0.514  -0.633   1.115  0.00  0.00    -0.146 I 
ENDROOT
TORSDOF 0
ENDMDL
