MODEL 1
REMARK minimizedAffinity 15.450037
REMARK minimizedRMSD -1
REMARK  0 active torsions:
REMARK  status: ('A' for Active; 'I' for Inactive)
ROOT
ATOM      1  C   UNL d   1      -0.071   0.512  -2.555  0.00  0.00     0.124 A 
ATOM      2  C1  UNL d   1      -1.376   0.948  -2.741  0.00  0.00     0.062 A 
ATOM      3  C2  UNL d   1      -2.014   1.688  -1.749  0.00  0.00     0.162 A 
ATOM      4  C3  UNL d   1      -1.349   1.997  -0.563  0.00  0.00    -0.034 A 
ATOM      5  C4  UNL d   1      -0.037   1.554  -0.383  0.00  0.00     0.162 A 
ATOM      6  C5  UNL d   1       0.597   0.815  -1.377  0.00  0.00     0.062 A 
ATOM      7  F   UNL d   1       1.857   0.394  -1.195  0.00  0.00    -0.097 F 
ATOM      8  F1  UNL d   1       0.632   1.833   0.745  0.00  0.00    -0.096 F 
ATOM      9  I   UNL d   1      -2.300   3.103   0.922  0.00  0.00    -0.060 I 
ATOM     10  F2  UNL d   1      -3.275   2.096  -1.956  0.00  0.00    -0.096 F 
ATOM     11  F3  UNL d   1      -2.023   0.656  -3.878  0.00  0.00    -0.097 F 
ATOM     12  F4  UNL d   1       0.541  -0.200  -3.510  0.00  0.00    -0.092 F 
ENDROOT
TORSDOF 0
ENDMDL
