MODEL 1
REMARK minimizedAffinity 13.1950636
REMARK minimizedRMSD -1
REMARK  0 active torsions:
REMARK  status: ('A' for Active; 'I' for Inactive)
ROOT
ATOM      1  C   UNL d   1       0.023   2.796  -0.185  0.00  0.00     0.124 A 
ATOM      2  C1  UNL d   1      -1.158   2.270  -0.691  0.00  0.00     0.062 A 
ATOM      3  C2  UNL d   1      -1.916   3.000  -1.602  0.00  0.00     0.162 A 
ATOM      4  C3  UNL d   1      -1.495   4.264  -2.014  0.00  0.00    -0.034 A 
ATOM      5  C4  UNL d   1      -0.307   4.787  -1.499  0.00  0.00     0.162 A 
ATOM      6  C5  UNL d   1       0.447   4.054  -0.589  0.00  0.00     0.062 A 
ATOM      7  F   UNL d   1       1.587   4.564  -0.101  0.00  0.00    -0.097 F 
ATOM      8  F1  UNL d   1       0.126   6.000  -1.874  0.00  0.00    -0.096 F 
ATOM      9  I   UNL d   1      -2.626   5.359  -3.375  0.00  0.00    -0.060 I 
ATOM     10  F2  UNL d   1      -3.052   2.467  -2.074  0.00  0.00    -0.096 F 
ATOM     11  F3  UNL d   1      -1.570   1.055  -0.301  0.00  0.00    -0.097 F 
ATOM     12  F4  UNL d   1       0.749   2.091   0.692  0.00  0.00    -0.092 F 
ENDROOT
TORSDOF 0
ENDMDL
