MODEL 1
REMARK minimizedAffinity 11.9866829
REMARK minimizedRMSD -1
REMARK  0 active torsions:
REMARK  status: ('A' for Active; 'I' for Inactive)
ROOT
ATOM      1  C   UNL d   1      -2.850   4.965  -4.294  0.00  0.00     0.124 A 
ATOM      2  C1  UNL d   1      -3.998   4.880  -5.070  0.00  0.00     0.062 A 
ATOM      3  C2  UNL d   1      -4.888   3.826  -4.889  0.00  0.00     0.162 A 
ATOM      4  C3  UNL d   1      -4.636   2.848  -3.927  0.00  0.00    -0.034 A 
ATOM      5  C4  UNL d   1      -3.479   2.940  -3.151  0.00  0.00     0.162 A 
ATOM      6  C5  UNL d   1      -2.592   3.996  -3.335  0.00  0.00     0.062 A 
ATOM      7  F   UNL d   1      -1.484   4.076  -2.585  0.00  0.00    -0.097 F 
ATOM      8  F1  UNL d   1      -3.205   2.017  -2.217  0.00  0.00    -0.096 F 
ATOM      9  I   UNL d   1      -5.965   1.271  -3.654  0.00  0.00    -0.060 I 
ATOM     10  F2  UNL d   1      -5.989   3.769  -5.653  0.00  0.00    -0.096 F 
ATOM     11  F3  UNL d   1      -4.249   5.815  -5.997  0.00  0.00    -0.097 F 
ATOM     12  F4  UNL d   1      -1.994   5.980  -4.471  0.00  0.00    -0.092 F 
ENDROOT
TORSDOF 0
ENDMDL
