MODEL 1
REMARK minimizedAffinity 15.1646175
REMARK minimizedRMSD -1
REMARK  0 active torsions:
REMARK  status: ('A' for Active; 'I' for Inactive)
ROOT
ATOM      1  C   UNL d   1      -1.442   1.679  -4.838  0.00  0.00     0.124 A 
ATOM      2  C1  UNL d   1      -0.353   0.818  -4.819  0.00  0.00     0.062 A 
ATOM      3  C2  UNL d   1       0.261   0.492  -3.613  0.00  0.00     0.162 A 
ATOM      4  C3  UNL d   1      -0.213   1.026  -2.415  0.00  0.00    -0.034 A 
ATOM      5  C4  UNL d   1      -1.308   1.892  -2.442  0.00  0.00     0.162 A 
ATOM      6  C5  UNL d   1      -1.918   2.214  -3.650  0.00  0.00     0.062 A 
ATOM      7  F   UNL d   1      -2.970   3.046  -3.666  0.00  0.00    -0.097 F 
ATOM      8  F1  UNL d   1      -1.790   2.423  -1.309  0.00  0.00    -0.096 F 
ATOM      9  I   UNL d   1       0.702   0.541  -0.610  0.00  0.00    -0.060 I 
ATOM     10  F2  UNL d   1       1.311  -0.342  -3.625  0.00  0.00    -0.096 F 
ATOM     11  F3  UNL d   1       0.109   0.299  -5.966  0.00  0.00    -0.097 F 
ATOM     12  F4  UNL d   1      -2.030   1.991  -6.000  0.00  0.00    -0.092 F 
ENDROOT
TORSDOF 0
ENDMDL
