MODEL 1
REMARK minimizedAffinity 12.0678453
REMARK minimizedRMSD -1
REMARK  0 active torsions:
REMARK  status: ('A' for Active; 'I' for Inactive)
ROOT
ATOM      1  C   UNL d   1      -5.178   1.088  -3.897  0.00  0.00     0.124 A 
ATOM      2  C1  UNL d   1      -4.352   1.311  -2.804  0.00  0.00     0.062 A 
ATOM      3  C2  UNL d   1      -3.548   2.446  -2.754  0.00  0.00     0.162 A 
ATOM      4  C3  UNL d   1      -3.566   3.368  -3.801  0.00  0.00    -0.034 A 
ATOM      5  C4  UNL d   1      -4.398   3.136  -4.897  0.00  0.00     0.162 A 
ATOM      6  C5  UNL d   1      -5.200   2.001  -4.942  0.00  0.00     0.062 A 
ATOM      7  F   UNL d   1      -5.997   1.787  -5.999  0.00  0.00    -0.097 F 
ATOM      8  F1  UNL d   1      -4.440   4.002  -5.921  0.00  0.00    -0.096 F 
ATOM      9  I   UNL d   1      -2.365   5.066  -3.730  0.00  0.00    -0.060 I 
ATOM     10  F2  UNL d   1      -2.760   2.636  -1.686  0.00  0.00    -0.096 F 
ATOM     11  F3  UNL d   1      -4.328   0.431  -1.793  0.00  0.00    -0.097 F 
ATOM     12  F4  UNL d   1      -5.950  -0.005  -3.943  0.00  0.00    -0.092 F 
ENDROOT
TORSDOF 0
ENDMDL
