MODEL 1
REMARK minimizedAffinity 17.6024456
REMARK minimizedRMSD -1
REMARK  0 active torsions:
REMARK  status: ('A' for Active; 'I' for Inactive)
ROOT
ATOM      1  C   UNL d   1      -2.478   3.715  -5.064  0.00  0.00     0.124 A 
ATOM      2  C1  UNL d   1      -3.785   4.033  -4.721  0.00  0.00     0.062 A 
ATOM      3  C2  UNL d   1      -4.610   3.072  -4.143  0.00  0.00     0.162 A 
ATOM      4  C3  UNL d   1      -4.130   1.784  -3.905  0.00  0.00    -0.034 A 
ATOM      5  C4  UNL d   1      -2.815   1.472  -4.254  0.00  0.00     0.162 A 
ATOM      6  C5  UNL d   1      -1.995   2.436  -4.831  0.00  0.00     0.062 A 
ATOM      7  F   UNL d   1      -0.732   2.127  -5.162  0.00  0.00    -0.097 F 
ATOM      8  F1  UNL d   1      -2.322   0.243  -4.038  0.00  0.00    -0.096 F 
ATOM      9  I   UNL d   1      -5.361   0.344  -3.042  0.00  0.00    -0.060 I 
ATOM     10  F2  UNL d   1      -5.868   3.406  -3.822  0.00  0.00    -0.096 F 
ATOM     11  F3  UNL d   1      -4.255   5.268  -4.946  0.00  0.00    -0.097 F 
ATOM     12  F4  UNL d   1      -1.687   4.642  -5.620  0.00  0.00    -0.092 F 
ENDROOT
TORSDOF 0
ENDMDL
