MODEL 1
REMARK minimizedAffinity 16.8110352
REMARK minimizedRMSD -1
REMARK  0 active torsions:
REMARK  status: ('A' for Active; 'I' for Inactive)
ROOT
ATOM      1  C   UNL d   1       1.117   2.800   0.421  0.00  0.00     0.124 A 
ATOM      2  C1  UNL d   1       2.027   2.343   1.364  0.00  0.00     0.062 A 
ATOM      3  C2  UNL d   1       3.133   3.117   1.703  0.00  0.00     0.162 A 
ATOM      4  C3  UNL d   1       3.334   4.358   1.099  0.00  0.00    -0.034 A 
ATOM      5  C4  UNL d   1       2.415   4.811   0.150  0.00  0.00     0.162 A 
ATOM      6  C5  UNL d   1       1.312   4.033  -0.185  0.00  0.00     0.062 A 
ATOM      7  F   UNL d   1       0.434   4.477  -1.096  0.00  0.00    -0.097 F 
ATOM      8  F1  UNL d   1       2.579   5.999  -0.450  0.00  0.00    -0.096 F 
ATOM      9  I   UNL d   1       4.986   5.519   1.603  0.00  0.00    -0.060 I 
ATOM     10  F2  UNL d   1       3.996   2.650   2.617  0.00  0.00    -0.096 F 
ATOM     11  F3  UNL d   1       1.841   1.151   1.950  0.00  0.00    -0.097 F 
ATOM     12  F4  UNL d   1       0.054   2.052   0.096  0.00  0.00    -0.092 F 
ENDROOT
TORSDOF 0
ENDMDL
