MODEL 1
REMARK minimizedAffinity 21.8693027
REMARK minimizedRMSD -1
REMARK  0 active torsions:
REMARK  status: ('A' for Active; 'I' for Inactive)
ROOT
ATOM      1  C   UNL d   1       0.406   1.556   0.573  0.00  0.00     0.124 A 
ATOM      2  C1  UNL d   1      -0.403   2.115  -0.406  0.00  0.00     0.062 A 
ATOM      3  C2  UNL d   1      -0.122   3.384  -0.905  0.00  0.00     0.162 A 
ATOM      4  C3  UNL d   1       0.974   4.102  -0.427  0.00  0.00    -0.034 A 
ATOM      5  C4  UNL d   1       1.782   3.533   0.559  0.00  0.00     0.162 A 
ATOM      6  C5  UNL d   1       1.497   2.265   1.055  0.00  0.00     0.062 A 
ATOM      7  F   UNL d   1       2.280   1.726   2.001  0.00  0.00    -0.097 F 
ATOM      8  F1  UNL d   1       2.844   4.196   1.041  0.00  0.00    -0.096 F 
ATOM      9  I   UNL d   1       1.397   5.999  -1.171  0.00  0.00    -0.060 I 
ATOM     10  F2  UNL d   1      -0.921   3.900  -1.852  0.00  0.00    -0.096 F 
ATOM     11  F3  UNL d   1      -1.459   1.433  -0.872  0.00  0.00    -0.097 F 
ATOM     12  F4  UNL d   1       0.133   0.336   1.053  0.00  0.00    -0.092 F 
ENDROOT
TORSDOF 0
ENDMDL
