MODEL 1
REMARK minimizedAffinity 8.21107674
REMARK minimizedRMSD -1
REMARK  1 active torsions:
REMARK  status: ('A' for Active; 'I' for Inactive)
REMARK    1  A    between atoms: C1_2  and  C2_3 
ROOT
ATOM      1  C2  UNL d   1      -1.557   4.636  -2.873  0.00  0.00    -0.076 A 
ATOM      2  C3  UNL d   1      -1.986   3.681  -3.810  0.00  0.00     0.004 A 
ATOM      3  C4  UNL d   1      -2.690   2.547  -3.409  0.00  0.00    -0.003 A 
ATOM      4  C5  UNL d   1      -2.978   2.350  -2.062  0.00  0.00     0.000 A 
ATOM      5  C6  UNL d   1      -2.575   3.297  -1.120  0.00  0.00     0.000 A 
ATOM      6  C7  UNL d   1      -1.879   4.453  -1.511  0.00  0.00    -0.073 A 
ATOM      7  C8  UNL d   1      -1.464   5.438  -0.452  0.00  0.00     0.078 C 
ENDROOT
BRANCH   1   8
ATOM      8  C1  UNL d   1      -0.774   5.832  -3.364  0.00  0.00     0.053 C 
ATOM      9  C   UNL d   1       0.233   5.466  -4.444  0.00  0.00     0.018 C 
ENDBRANCH   1   8
TORSDOF 1
ENDMDL
