MODEL 1
REMARK minimizedAffinity 11.5572653
REMARK minimizedRMSD -1
REMARK  1 active torsions:
REMARK  status: ('A' for Active; 'I' for Inactive)
REMARK    1  A    between atoms: C1_2  and  C2_3 
ROOT
ATOM      1  C2  UNL d   1       2.344   0.404   1.164  0.00  0.00    -0.076 A 
ATOM      2  C3  UNL d   1       2.745  -0.060   2.429  0.00  0.00     0.004 A 
ATOM      3  C4  UNL d   1       1.992   0.220   3.568  0.00  0.00    -0.003 A 
ATOM      4  C5  UNL d   1       0.824   0.967   3.460  0.00  0.00     0.000 A 
ATOM      5  C6  UNL d   1       0.401   1.420   2.211  0.00  0.00     0.000 A 
ATOM      6  C7  UNL d   1       1.141   1.133   1.050  0.00  0.00    -0.073 A 
ATOM      7  C8  UNL d   1       0.642   1.652  -0.270  0.00  0.00     0.078 C 
ENDROOT
BRANCH   1   8
ATOM      8  C1  UNL d   1       3.216   0.093  -0.031  0.00  0.00     0.053 C 
ATOM      9  C   UNL d   1       4.696   0.284   0.262  0.00  0.00     0.018 C 
ENDBRANCH   1   8
TORSDOF 1
ENDMDL
