MODEL 1
REMARK minimizedAffinity 16.9113884
REMARK minimizedRMSD -1
REMARK  1 active torsions:
REMARK  status: ('A' for Active; 'I' for Inactive)
REMARK    1  A    between atoms: C1_2  and  C2_3 
ROOT
ATOM      1  C2  UNL d   1      -3.786   0.939   0.003  0.00  0.00    -0.076 A 
ATOM      2  C3  UNL d   1      -4.541   2.104  -0.215  0.00  0.00     0.004 A 
ATOM      3  C4  UNL d   1      -4.807   2.991   0.827  0.00  0.00    -0.003 A 
ATOM      4  C5  UNL d   1      -4.321   2.728   2.103  0.00  0.00     0.000 A 
ATOM      5  C6  UNL d   1      -3.555   1.585   2.333  0.00  0.00     0.000 A 
ATOM      6  C7  UNL d   1      -3.264   0.689   1.290  0.00  0.00    -0.073 A 
ATOM      7  C8  UNL d   1      -2.438  -0.530   1.596  0.00  0.00     0.078 C 
ENDROOT
BRANCH   1   8
ATOM      8  C1  UNL d   1      -3.552  -0.000  -1.159  0.00  0.00     0.053 C 
ATOM      9  C   UNL d   1      -4.470  -1.213  -1.122  0.00  0.00     0.018 C 
ENDBRANCH   1   8
TORSDOF 1
ENDMDL
