MODEL 1
REMARK minimizedAffinity 3.4930253
REMARK minimizedRMSD -1
REMARK  1 active torsions:
REMARK  status: ('A' for Active; 'I' for Inactive)
REMARK    1  A    between atoms: C1_2  and  C2_3 
ROOT
ATOM      1  C2  UNL d   1      -1.431  -2.109   1.234  0.00  0.00    -0.076 A 
ATOM      2  C3  UNL d   1      -0.626  -2.323   0.101  0.00  0.00     0.004 A 
ATOM      3  C4  UNL d   1       0.281  -1.355  -0.327  0.00  0.00    -0.003 A 
ATOM      4  C5  UNL d   1       0.398  -0.158   0.370  0.00  0.00     0.000 A 
ATOM      5  C6  UNL d   1      -0.380   0.063   1.506  0.00  0.00     0.000 A 
ATOM      6  C7  UNL d   1      -1.287  -0.909   1.961  0.00  0.00    -0.073 A 
ATOM      7  C8  UNL d   1      -2.106  -0.614   3.188  0.00  0.00     0.078 C 
ENDROOT
BRANCH   1   8
ATOM      8  C1  UNL d   1      -2.416  -3.184   1.635  0.00  0.00     0.053 C 
ATOM      9  C   UNL d   1      -3.302  -3.623   0.479  0.00  0.00     0.018 C 
ENDBRANCH   1   8
TORSDOF 1
ENDMDL
