MODEL 1
REMARK minimizedAffinity 1.11732984
REMARK minimizedRMSD -1
REMARK  1 active torsions:
REMARK  status: ('A' for Active; 'I' for Inactive)
REMARK    1  A    between atoms: C1_2  and  C2_3 
ROOT
ATOM      1  C2  UNL d   1      -0.931  -2.154   0.988  0.00  0.00    -0.076 A 
ATOM      2  C3  UNL d   1       0.154  -2.297   0.105  0.00  0.00     0.004 A 
ATOM      3  C4  UNL d   1       1.016  -1.233  -0.151  0.00  0.00    -0.003 A 
ATOM      4  C5  UNL d   1       0.808  -0.007   0.472  0.00  0.00     0.000 A 
ATOM      5  C6  UNL d   1      -0.253   0.148   1.364  0.00  0.00     0.000 A 
ATOM      6  C7  UNL d   1      -1.121  -0.920   1.646  0.00  0.00    -0.073 A 
ATOM      7  C8  UNL d   1      -2.252  -0.695   2.612  0.00  0.00     0.078 C 
ENDROOT
BRANCH   1   8
ATOM      8  C1  UNL d   1      -1.849  -3.336   1.206  0.00  0.00     0.053 C 
ATOM      9  C   UNL d   1      -2.901  -3.465   0.116  0.00  0.00     0.018 C 
ENDBRANCH   1   8
TORSDOF 1
ENDMDL
