MODEL 1
REMARK minimizedAffinity 8.76143932
REMARK minimizedRMSD -1
REMARK  1 active torsions:
REMARK  status: ('A' for Active; 'I' for Inactive)
REMARK    1  A    between atoms: C1_2  and  C2_3 
ROOT
ATOM      1  C2  UNL d   1       0.313  -0.239   0.928  0.00  0.00    -0.076 A 
ATOM      2  C3  UNL d   1       0.112  -0.400  -0.454  0.00  0.00     0.004 A 
ATOM      3  C4  UNL d   1       0.642   0.511  -1.366  0.00  0.00    -0.003 A 
ATOM      4  C5  UNL d   1       1.380   1.598  -0.911  0.00  0.00     0.000 A 
ATOM      5  C6  UNL d   1       1.603   1.763   0.455  0.00  0.00     0.000 A 
ATOM      6  C7  UNL d   1       1.091   0.845   1.387  0.00  0.00    -0.073 A 
ATOM      7  C8  UNL d   1       1.357   1.076   2.850  0.00  0.00     0.078 C 
ENDROOT
BRANCH   1   8
ATOM      8  C1  UNL d   1      -0.308  -1.244   1.872  0.00  0.00     0.053 C 
ATOM      9  C   UNL d   1      -1.515  -0.684   2.608  0.00  0.00     0.018 C 
ENDBRANCH   1   8
TORSDOF 1
ENDMDL
