MODEL 1
REMARK minimizedAffinity 3.03592753
REMARK minimizedRMSD -1
REMARK  1 active torsions:
REMARK  status: ('A' for Active; 'I' for Inactive)
REMARK    1  A    between atoms: C1_2  and  C2_3 
ROOT
ATOM      1  C2  UNL d   1       1.484   4.401  -5.176  0.00  0.00    -0.076 A 
ATOM      2  C3  UNL d   1       1.117   3.296  -4.388  0.00  0.00     0.004 A 
ATOM      3  C4  UNL d   1       2.070   2.591  -3.655  0.00  0.00    -0.003 A 
ATOM      4  C5  UNL d   1       3.404   2.980  -3.696  0.00  0.00     0.000 A 
ATOM      5  C6  UNL d   1       3.783   4.084  -4.457  0.00  0.00     0.000 A 
ATOM      6  C7  UNL d   1       2.833   4.816  -5.190  0.00  0.00    -0.073 A 
ATOM      7  C8  UNL d   1       3.298   5.996  -6.000  0.00  0.00     0.078 C 
ENDROOT
BRANCH   1   8
ATOM      8  C1  UNL d   1       0.412   5.111  -5.972  0.00  0.00     0.053 C 
ATOM      9  C   UNL d   1      -0.466   6.000  -5.104  0.00  0.00     0.018 C 
ENDBRANCH   1   8
TORSDOF 1
ENDMDL
