MODEL 1
REMARK minimizedAffinity 1.21647513
REMARK minimizedRMSD -1
REMARK  1 active torsions:
REMARK  status: ('A' for Active; 'I' for Inactive)
REMARK    1  A    between atoms: C1_2  and  C2_3 
ROOT
ATOM      1  C2  UNL d   1      -1.370   5.982  -3.522  0.00  0.00    -0.076 A 
ATOM      2  C3  UNL d   1      -1.440   5.981  -4.926  0.00  0.00     0.004 A 
ATOM      3  C4  UNL d   1      -0.283   5.990  -5.702  0.00  0.00    -0.003 A 
ATOM      4  C5  UNL d   1       0.964   6.000  -5.087  0.00  0.00     0.000 A 
ATOM      5  C6  UNL d   1       1.053   5.984  -3.696  0.00  0.00     0.000 A 
ATOM      6  C7  UNL d   1      -0.104   5.958  -2.898  0.00  0.00    -0.073 A 
ATOM      7  C8  UNL d   1       0.050   5.947  -1.402  0.00  0.00     0.078 C 
ENDROOT
BRANCH   1   8
ATOM      8  C1  UNL d   1      -2.659   6.000  -2.732  0.00  0.00     0.053 C 
ATOM      9  C   UNL d   1      -3.879   5.734  -3.601  0.00  0.00     0.018 C 
ENDBRANCH   1   8
TORSDOF 1
ENDMDL
