MODEL 1
REMARK minimizedAffinity 1.20740819
REMARK minimizedRMSD -1
REMARK  1 active torsions:
REMARK  status: ('A' for Active; 'I' for Inactive)
REMARK    1  A    between atoms: C1_2  and  C2_3 
ROOT
ATOM      1  C2  UNL d   1       0.621   0.609   0.549  0.00  0.00    -0.076 A 
ATOM      2  C3  UNL d   1       0.569   1.835   1.234  0.00  0.00     0.004 A 
ATOM      3  C4  UNL d   1       1.251   2.954   0.758  0.00  0.00    -0.003 A 
ATOM      4  C5  UNL d   1       1.996   2.864  -0.413  0.00  0.00     0.000 A 
ATOM      5  C6  UNL d   1       2.044   1.661  -1.116  0.00  0.00     0.000 A 
ATOM      6  C7  UNL d   1       1.350   0.528  -0.658  0.00  0.00    -0.073 A 
ATOM      7  C8  UNL d   1       1.442  -0.746  -1.452  0.00  0.00     0.078 C 
ENDROOT
BRANCH   1   8
ATOM      8  C1  UNL d   1      -0.116  -0.577   1.128  0.00  0.00     0.053 C 
ATOM      9  C   UNL d   1      -1.418  -0.179   1.806  0.00  0.00     0.018 C 
ENDBRANCH   1   8
TORSDOF 1
ENDMDL
