MODEL 1
REMARK minimizedAffinity 5.35773849
REMARK minimizedRMSD -1
REMARK  1 active torsions:
REMARK  status: ('A' for Active; 'I' for Inactive)
REMARK    1  A    between atoms: C1_2  and  C2_3 
ROOT
ATOM      1  C2  UNL d   1       0.442   1.720   1.333  0.00  0.00    -0.076 A 
ATOM      2  C3  UNL d   1       0.635   3.112   1.298  0.00  0.00     0.004 A 
ATOM      3  C4  UNL d   1       1.363   3.710   0.271  0.00  0.00    -0.003 A 
ATOM      4  C5  UNL d   1       1.910   2.925  -0.739  0.00  0.00     0.000 A 
ATOM      5  C6  UNL d   1       1.713   1.545  -0.730  0.00  0.00     0.000 A 
ATOM      6  C7  UNL d   1       0.968   0.928   0.290  0.00  0.00    -0.073 A 
ATOM      7  C8  UNL d   1       0.792  -0.565   0.253  0.00  0.00     0.078 C 
ENDROOT
BRANCH   1   8
ATOM      8  C1  UNL d   1      -0.333   1.125   2.487  0.00  0.00     0.053 C 
ATOM      9  C   UNL d   1      -1.694   0.595   2.062  0.00  0.00     0.018 C 
ENDBRANCH   1   8
TORSDOF 1
ENDMDL
