MODEL 1
REMARK minimizedAffinity 6.61474562
REMARK minimizedRMSD -1
REMARK  1 active torsions:
REMARK  status: ('A' for Active; 'I' for Inactive)
REMARK    1  A    between atoms: C1_2  and  C2_3 
ROOT
ATOM      1  C2  UNL d   1       0.744   0.874   1.095  0.00  0.00    -0.076 A 
ATOM      2  C3  UNL d   1      -0.096   1.075   2.204  0.00  0.00     0.004 A 
ATOM      3  C4  UNL d   1      -1.108   0.167   2.511  0.00  0.00    -0.003 A 
ATOM      4  C5  UNL d   1      -1.296  -0.957   1.713  0.00  0.00     0.000 A 
ATOM      5  C6  UNL d   1      -0.461  -1.180   0.619  0.00  0.00     0.000 A 
ATOM      6  C7  UNL d   1       0.574  -0.283   0.306  0.00  0.00    -0.073 A 
ATOM      7  C8  UNL d   1       1.441  -0.571  -0.889  0.00  0.00     0.078 C 
ENDROOT
BRANCH   1   8
ATOM      8  C1  UNL d   1       1.807   1.907   0.796  0.00  0.00     0.053 C 
ATOM      9  C   UNL d   1       1.346   2.939  -0.222  0.00  0.00     0.018 C 
ENDBRANCH   1   8
TORSDOF 1
ENDMDL
