MODEL 1
REMARK minimizedAffinity 3.49571323
REMARK minimizedRMSD -1
REMARK  1 active torsions:
REMARK  status: ('A' for Active; 'I' for Inactive)
REMARK    1  A    between atoms: C1_2  and  C2_3 
ROOT
ATOM      1  C2  UNL d   1       0.469   1.240   1.305  0.00  0.00    -0.076 A 
ATOM      2  C3  UNL d   1       0.235   0.051   0.593  0.00  0.00     0.004 A 
ATOM      3  C4  UNL d   1       0.621  -0.075  -0.740  0.00  0.00    -0.003 A 
ATOM      4  C5  UNL d   1       1.249   0.987  -1.383  0.00  0.00     0.000 A 
ATOM      5  C6  UNL d   1       1.505   2.167  -0.687  0.00  0.00     0.000 A 
ATOM      6  C7  UNL d   1       1.137   2.305   0.662  0.00  0.00    -0.073 A 
ATOM      7  C8  UNL d   1       1.433   3.603   1.363  0.00  0.00     0.078 C 
ENDROOT
BRANCH   1   8
ATOM      8  C1  UNL d   1       0.004   1.328   2.741  0.00  0.00     0.053 C 
ATOM      9  C   UNL d   1      -1.402   0.780   2.933  0.00  0.00     0.018 C 
ENDBRANCH   1   8
TORSDOF 1
ENDMDL
