MODEL 1
REMARK minimizedAffinity 3.22081709
REMARK minimizedRMSD -1
REMARK  1 active torsions:
REMARK  status: ('A' for Active; 'I' for Inactive)
REMARK    1  A    between atoms: C1_2  and  C2_3 
ROOT
ATOM      1  C2  UNL d   1       0.073  -0.345  -2.382  0.00  0.00    -0.076 A 
ATOM      2  C3  UNL d   1      -1.288   0.009  -2.406  0.00  0.00     0.004 A 
ATOM      3  C4  UNL d   1      -2.079  -0.261  -3.521  0.00  0.00    -0.003 A 
ATOM      4  C5  UNL d   1      -1.524  -0.891  -4.630  0.00  0.00     0.000 A 
ATOM      5  C6  UNL d   1      -0.181  -1.265  -4.616  0.00  0.00     0.000 A 
ATOM      6  C7  UNL d   1       0.627  -1.015  -3.494  0.00  0.00    -0.073 A 
ATOM      7  C8  UNL d   1       2.071  -1.435  -3.535  0.00  0.00     0.078 C 
ENDROOT
BRANCH   1   8
ATOM      8  C1  UNL d   1       0.888  -0.003  -1.156  0.00  0.00     0.053 C 
ATOM      9  C   UNL d   1       0.116  -0.217   0.137  0.00  0.00     0.018 C 
ENDBRANCH   1   8
TORSDOF 1
ENDMDL
