MODEL 1
REMARK minimizedAffinity 5.1020813
REMARK minimizedRMSD -1
REMARK  1 active torsions:
REMARK  status: ('A' for Active; 'I' for Inactive)
REMARK    1  A    between atoms: C1_2  and  C2_3 
ROOT
ATOM      1  C2  UNL d   1      -3.692   2.741  -4.968  0.00  0.00    -0.076 A 
ATOM      2  C3  UNL d   1      -3.795   1.370  -4.677  0.00  0.00     0.004 A 
ATOM      3  C4  UNL d   1      -4.939   0.649  -5.016  0.00  0.00    -0.003 A 
ATOM      4  C5  UNL d   1      -5.997   1.287  -5.653  0.00  0.00     0.000 A 
ATOM      5  C6  UNL d   1      -5.905   2.643  -5.965  0.00  0.00     0.000 A 
ATOM      6  C7  UNL d   1      -4.752   3.381  -5.644  0.00  0.00    -0.073 A 
ATOM      7  C8  UNL d   1      -4.709   4.842  -5.999  0.00  0.00     0.078 C 
ENDROOT
BRANCH   1   8
ATOM      8  C1  UNL d   1      -2.438   3.478  -4.552  0.00  0.00     0.053 C 
ATOM      9  C   UNL d   1      -1.908   3.010  -3.205  0.00  0.00     0.018 C 
ENDBRANCH   1   8
TORSDOF 1
ENDMDL
