MODEL 1
REMARK minimizedAffinity 6.25663471
REMARK minimizedRMSD -1
REMARK  1 active torsions:
REMARK  status: ('A' for Active; 'I' for Inactive)
REMARK    1  A    between atoms: C1_2  and  C2_3 
ROOT
ATOM      1  C2  UNL d   1      -4.332   2.468  -4.044  0.00  0.00    -0.076 A 
ATOM      2  C3  UNL d   1      -4.062   3.834  -4.235  0.00  0.00     0.004 A 
ATOM      3  C4  UNL d   1      -4.742   4.572  -5.202  0.00  0.00    -0.003 A 
ATOM      4  C5  UNL d   1      -5.704   3.956  -5.994  0.00  0.00     0.000 A 
ATOM      5  C6  UNL d   1      -5.998   2.606  -5.807  0.00  0.00     0.000 A 
ATOM      6  C7  UNL d   1      -5.333   1.851  -4.826  0.00  0.00    -0.073 A 
ATOM      7  C8  UNL d   1      -5.685   0.397  -4.671  0.00  0.00     0.078 C 
ENDROOT
BRANCH   1   8
ATOM      8  C1  UNL d   1      -3.544   1.712  -2.999  0.00  0.00     0.053 C 
ATOM      9  C   UNL d   1      -2.382   2.523  -2.446  0.00  0.00     0.018 C 
ENDBRANCH   1   8
TORSDOF 1
ENDMDL
