MODEL 1
REMARK minimizedAffinity 7.11219263
REMARK minimizedRMSD -1
REMARK  1 active torsions:
REMARK  status: ('A' for Active; 'I' for Inactive)
REMARK    1  A    between atoms: C1_2  and  C2_3 
ROOT
ATOM      1  C2  UNL d   1      -4.452   3.151  -4.326  0.00  0.00    -0.076 A 
ATOM      2  C3  UNL d   1      -4.293   1.836  -3.855  0.00  0.00     0.004 A 
ATOM      3  C4  UNL d   1      -4.982   0.776  -4.440  0.00  0.00    -0.003 A 
ATOM      4  C5  UNL d   1      -5.842   1.013  -5.507  0.00  0.00     0.000 A 
ATOM      5  C6  UNL d   1      -5.999   2.308  -5.998  0.00  0.00     0.000 A 
ATOM      6  C7  UNL d   1      -5.299   3.386  -5.430  0.00  0.00    -0.073 A 
ATOM      7  C8  UNL d   1      -5.511   4.764  -5.996  0.00  0.00     0.078 C 
ENDROOT
BRANCH   1   8
ATOM      8  C1  UNL d   1      -3.699   4.265  -3.634  0.00  0.00     0.053 C 
ATOM      9  C   UNL d   1      -2.471   4.709  -4.413  0.00  0.00     0.018 C 
ENDBRANCH   1   8
TORSDOF 1
ENDMDL
