MODEL 1
REMARK minimizedAffinity 2.25356936
REMARK minimizedRMSD -1
REMARK  1 active torsions:
REMARK  status: ('A' for Active; 'I' for Inactive)
REMARK    1  A    between atoms: C1_2  and  C2_3 
ROOT
ATOM      1  C2  UNL d   1      -4.644   2.177  -3.455  0.00  0.00    -0.076 A 
ATOM      2  C3  UNL d   1      -4.502   3.299  -4.289  0.00  0.00     0.004 A 
ATOM      3  C4  UNL d   1      -5.092   3.333  -5.552  0.00  0.00    -0.003 A 
ATOM      4  C5  UNL d   1      -5.834   2.246  -6.000  0.00  0.00     0.000 A 
ATOM      5  C6  UNL d   1      -6.000   1.132  -5.178  0.00  0.00     0.000 A 
ATOM      6  C7  UNL d   1      -5.426   1.088  -3.896  0.00  0.00    -0.073 A 
ATOM      7  C8  UNL d   1      -5.632  -0.141  -3.054  0.00  0.00     0.078 C 
ENDROOT
BRANCH   1   8
ATOM      8  C1  UNL d   1      -3.959   2.186  -2.107  0.00  0.00     0.053 C 
ATOM      9  C   UNL d   1      -2.444   2.250  -2.223  0.00  0.00     0.018 C 
ENDBRANCH   1   8
TORSDOF 1
ENDMDL
