MODEL 1
REMARK minimizedAffinity 5.86963987
REMARK minimizedRMSD -1
REMARK  1 active torsions:
REMARK  status: ('A' for Active; 'I' for Inactive)
REMARK    1  A    between atoms: C1_2  and  C2_3 
ROOT
ATOM      1  C2  UNL d   1       0.368   1.222  -0.313  0.00  0.00    -0.076 A 
ATOM      2  C3  UNL d   1       0.689  -0.142  -0.204  0.00  0.00     0.004 A 
ATOM      3  C4  UNL d   1       1.048  -0.698   1.023  0.00  0.00    -0.003 A 
ATOM      4  C5  UNL d   1       1.092   0.100   2.160  0.00  0.00     0.000 A 
ATOM      5  C6  UNL d   1       0.759   1.452   2.073  0.00  0.00     0.000 A 
ATOM      6  C7  UNL d   1       0.379   2.025   0.848  0.00  0.00    -0.073 A 
ATOM      7  C8  UNL d   1       0.037   3.489   0.811  0.00  0.00     0.078 C 
ENDROOT
BRANCH   1   8
ATOM      8  C1  UNL d   1       0.012   1.775  -1.674  0.00  0.00     0.053 C 
ATOM      9  C   UNL d   1       0.895   1.217  -2.780  0.00  0.00     0.018 C 
ENDBRANCH   1   8
TORSDOF 1
ENDMDL
