MODEL 1
REMARK minimizedAffinity 9.56219196
REMARK minimizedRMSD -1
REMARK  1 active torsions:
REMARK  status: ('A' for Active; 'I' for Inactive)
REMARK    1  A    between atoms: C1_2  and  C2_3 
ROOT
ATOM      1  C2  UNL d   1       0.415   0.546  -1.390  0.00  0.00    -0.076 A 
ATOM      2  C3  UNL d   1       0.518   1.940  -1.250  0.00  0.00     0.004 A 
ATOM      3  C4  UNL d   1       0.313   2.555  -0.016  0.00  0.00    -0.003 A 
ATOM      4  C5  UNL d   1       0.001   1.784   1.099  0.00  0.00     0.000 A 
ATOM      5  C6  UNL d   1      -0.088   0.398   0.982  0.00  0.00     0.000 A 
ATOM      6  C7  UNL d   1       0.132  -0.239  -0.251  0.00  0.00    -0.073 A 
ATOM      7  C8  UNL d   1       0.017  -1.737  -0.321  0.00  0.00     0.078 C 
ENDROOT
BRANCH   1   8
ATOM      8  C1  UNL d   1       0.621  -0.062  -2.759  0.00  0.00     0.053 C 
ATOM      9  C   UNL d   1       1.043   0.967  -3.796  0.00  0.00     0.018 C 
ENDBRANCH   1   8
TORSDOF 1
ENDMDL
