MODEL 1
REMARK minimizedAffinity 4.672544
REMARK minimizedRMSD -1
REMARK  1 active torsions:
REMARK  status: ('A' for Active; 'I' for Inactive)
REMARK    1  A    between atoms: C1_2  and  C2_3 
ROOT
ATOM      1  C2  UNL d   1      -0.068   2.035   1.038  0.00  0.00    -0.076 A 
ATOM      2  C3  UNL d   1      -0.330   2.471  -0.273  0.00  0.00     0.004 A 
ATOM      3  C4  UNL d   1      -0.407   1.564  -1.329  0.00  0.00    -0.003 A 
ATOM      4  C5  UNL d   1      -0.226   0.206  -1.090  0.00  0.00     0.000 A 
ATOM      5  C6  UNL d   1       0.017  -0.246   0.206  0.00  0.00     0.000 A 
ATOM      6  C7  UNL d   1       0.083   0.654   1.284  0.00  0.00    -0.073 A 
ATOM      7  C8  UNL d   1       0.354   0.112   2.661  0.00  0.00     0.078 C 
ENDROOT
BRANCH   1   8
ATOM      8  C1  UNL d   1       0.032   3.068   2.138  0.00  0.00     0.053 C 
ATOM      9  C   UNL d   1       0.754   4.329   1.689  0.00  0.00     0.018 C 
ENDBRANCH   1   8
TORSDOF 1
ENDMDL
