MODEL 1
REMARK minimizedAffinity 4.67630291
REMARK minimizedRMSD -1
REMARK  1 active torsions:
REMARK  status: ('A' for Active; 'I' for Inactive)
REMARK    1  A    between atoms: C1_2  and  C2_3 
ROOT
ATOM      1  C2  UNL d   1       0.725   0.055   0.012  0.00  0.00    -0.076 A 
ATOM      2  C3  UNL d   1       0.359   0.217   1.359  0.00  0.00     0.004 A 
ATOM      3  C4  UNL d   1       0.050   1.475   1.873  0.00  0.00    -0.003 A 
ATOM      4  C5  UNL d   1       0.103   2.593   1.047  0.00  0.00     0.000 A 
ATOM      5  C6  UNL d   1       0.447   2.449  -0.296  0.00  0.00     0.000 A 
ATOM      6  C7  UNL d   1       0.745   1.185  -0.834  0.00  0.00    -0.073 A 
ATOM      7  C8  UNL d   1       1.115   1.088  -2.289  0.00  0.00     0.078 C 
ENDROOT
BRANCH   1   8
ATOM      8  C1  UNL d   1       1.075  -1.330  -0.483  0.00  0.00     0.053 C 
ATOM      9  C   UNL d   1      -0.149  -2.220  -0.636  0.00  0.00     0.018 C 
ENDBRANCH   1   8
TORSDOF 1
ENDMDL
