MODEL 1
REMARK minimizedAffinity 4.17504358
REMARK minimizedRMSD -1
REMARK  1 active torsions:
REMARK  status: ('A' for Active; 'I' for Inactive)
REMARK    1  A    between atoms: C1_2  and  C2_3 
ROOT
ATOM      1  C2  UNL d   1      -4.913   2.088  -5.112  0.00  0.00    -0.076 A 
ATOM      2  C3  UNL d   1      -5.805   2.715  -6.000  0.00  0.00     0.004 A 
ATOM      3  C4  UNL d   1      -5.996   4.096  -5.967  0.00  0.00    -0.003 A 
ATOM      4  C5  UNL d   1      -5.299   4.871  -5.047  0.00  0.00     0.000 A 
ATOM      5  C6  UNL d   1      -4.398   4.267  -4.171  0.00  0.00     0.000 A 
ATOM      6  C7  UNL d   1      -4.181   2.878  -4.202  0.00  0.00    -0.073 A 
ATOM      7  C8  UNL d   1      -3.201   2.279  -3.230  0.00  0.00     0.078 C 
ENDROOT
BRANCH   1   8
ATOM      8  C1  UNL d   1      -4.767   0.584  -5.176  0.00  0.00     0.053 C 
ATOM      9  C   UNL d   1      -5.998  -0.097  -5.754  0.00  0.00     0.018 C 
ENDBRANCH   1   8
TORSDOF 1
ENDMDL
