MODEL 1
REMARK minimizedAffinity 1.2511518
REMARK minimizedRMSD -1
REMARK  1 active torsions:
REMARK  status: ('A' for Active; 'I' for Inactive)
REMARK    1  A    between atoms: C1_2  and  C2_3 
ROOT
ATOM      1  C2  UNL d   1      -3.824   3.631  -5.470  0.00  0.00    -0.076 A 
ATOM      2  C3  UNL d   1      -3.195   2.478  -4.969  0.00  0.00     0.004 A 
ATOM      3  C4  UNL d   1      -3.941   1.423  -4.445  0.00  0.00    -0.003 A 
ATOM      4  C5  UNL d   1      -5.329   1.504  -4.415  0.00  0.00     0.000 A 
ATOM      5  C6  UNL d   1      -5.970   2.633  -4.924  0.00  0.00     0.000 A 
ATOM      6  C7  UNL d   1      -5.233   3.698  -5.470  0.00  0.00    -0.073 A 
ATOM      7  C8  UNL d   1      -5.977   4.894  -6.000  0.00  0.00     0.078 C 
ENDROOT
BRANCH   1   8
ATOM      8  C1  UNL d   1      -2.961   4.754  -6.000  0.00  0.00     0.053 C 
ATOM      9  C   UNL d   1      -1.643   4.879  -5.252  0.00  0.00     0.018 C 
ENDBRANCH   1   8
TORSDOF 1
ENDMDL
