MODEL 1
REMARK minimizedAffinity -1.48881507
REMARK minimizedRMSD -1
REMARK  1 active torsions:
REMARK  status: ('A' for Active; 'I' for Inactive)
REMARK    1  A    between atoms: C1_2  and  C2_3 
ROOT
ATOM      1  C2  UNL d   1      -3.619   3.302  -5.906  0.00  0.00    -0.076 A 
ATOM      2  C3  UNL d   1      -3.376   1.918  -5.903  0.00  0.00     0.004 A 
ATOM      3  C4  UNL d   1      -4.428   1.005  -5.938  0.00  0.00    -0.003 A 
ATOM      4  C5  UNL d   1      -5.741   1.461  -5.978  0.00  0.00     0.000 A 
ATOM      5  C6  UNL d   1      -6.000   2.831  -6.000  0.00  0.00     0.000 A 
ATOM      6  C7  UNL d   1      -4.950   3.765  -5.981  0.00  0.00    -0.073 A 
ATOM      7  C8  UNL d   1      -5.287   5.231  -6.000  0.00  0.00     0.078 C 
ENDROOT
BRANCH   1   8
ATOM      8  C1  UNL d   1      -2.438   4.245  -5.839  0.00  0.00     0.053 C 
ATOM      9  C   UNL d   1      -2.015   4.548  -4.410  0.00  0.00     0.018 C 
ENDBRANCH   1   8
TORSDOF 1
ENDMDL
