MODEL 1
REMARK minimizedAffinity -5.00409937
REMARK minimizedRMSD -1
REMARK  0 active torsions:
REMARK  status: ('A' for Active; 'I' for Inactive)
ROOT
ATOM      1  C2' OXE d   1       1.570  -0.726   0.478  0.00  0.00     0.078 C 
ATOM      2  C1' OXE d   1      -0.193   1.431   0.133  0.00  0.00     0.078 C 
ATOM      3  C1  OXE d   1      -0.755   0.145   0.687  0.00  0.00    -0.078 A 
ATOM      4  C2  OXE d   1       0.105  -0.919   0.808  0.00  0.00    -0.078 A 
ATOM      5  C3  OXE d   1      -0.348  -2.112   1.364  0.00  0.00     0.003 A 
ATOM      6  C4  OXE d   1      -1.706  -2.286   1.658  0.00  0.00    -0.002 A 
ATOM      7  C5  OXE d   1      -2.607  -1.226   1.505  0.00  0.00    -0.002 A 
ATOM      8  C6  OXE d   1      -2.140   0.006   1.061  0.00  0.00     0.003 A 
ENDROOT
TORSDOF 0
ENDMDL
