MODEL 1
REMARK minimizedAffinity -6.13447046
REMARK minimizedRMSD -1
REMARK  0 active torsions:
REMARK  status: ('A' for Active; 'I' for Inactive)
ROOT
ATOM      1  C2' OXE d   1       1.383  -1.055   0.145  0.00  0.00     0.078 C 
ATOM      2  C1' OXE d   1      -0.038   1.267  -0.540  0.00  0.00     0.078 C 
ATOM      3  C1  OXE d   1      -0.803   0.139   0.105  0.00  0.00    -0.078 A 
ATOM      4  C2  OXE d   1      -0.110  -1.011   0.394  0.00  0.00    -0.078 A 
ATOM      5  C3  OXE d   1      -0.756  -2.062   1.039  0.00  0.00     0.003 A 
ATOM      6  C4  OXE d   1      -2.138  -2.018   1.256  0.00  0.00    -0.002 A 
ATOM      7  C5  OXE d   1      -2.871  -0.871   0.933  0.00  0.00    -0.002 A 
ATOM      8  C6  OXE d   1      -2.213   0.230   0.397  0.00  0.00     0.003 A 
ENDROOT
TORSDOF 0
ENDMDL
