MODEL 1
REMARK minimizedAffinity -5.92262125
REMARK minimizedRMSD -1
REMARK  0 active torsions:
REMARK  status: ('A' for Active; 'I' for Inactive)
ROOT
ATOM      1  C2' OXE d   1      -3.230  -0.514   1.724  0.00  0.00     0.078 C 
ATOM      2  C1' OXE d   1      -1.384  -2.539   1.113  0.00  0.00     0.078 C 
ATOM      3  C1  OXE d   1      -0.968  -1.110   0.866  0.00  0.00    -0.078 A 
ATOM      4  C2  OXE d   1      -1.894  -0.129   1.124  0.00  0.00    -0.078 A 
ATOM      5  C3  OXE d   1      -1.544   1.209   0.966  0.00  0.00     0.003 A 
ATOM      6  C4  OXE d   1      -0.310   1.557   0.401  0.00  0.00    -0.002 A 
ATOM      7  C5  OXE d   1       0.633   0.570   0.094  0.00  0.00    -0.002 A 
ATOM      8  C6  OXE d   1       0.337  -0.762   0.360  0.00  0.00     0.003 A 
ENDROOT
TORSDOF 0
ENDMDL
