MODEL 1
REMARK minimizedAffinity -1.387815
REMARK minimizedRMSD -1
REMARK  0 active torsions:
REMARK  status: ('A' for Active; 'I' for Inactive)
ROOT
ATOM      1  C2' OXE d   1       0.622   1.182  -0.350  0.00  0.00     0.078 C 
ATOM      2  C1' OXE d   1      -1.881   0.832   0.871  0.00  0.00     0.078 C 
ATOM      3  C1  OXE d   1      -1.017  -0.388   0.677  0.00  0.00    -0.078 A 
ATOM      4  C2  OXE d   1       0.187  -0.215   0.037  0.00  0.00    -0.078 A 
ATOM      5  C3  OXE d   1       1.047  -1.298  -0.119  0.00  0.00     0.003 A 
ATOM      6  C4  OXE d   1       0.633  -2.589   0.232  0.00  0.00    -0.002 A 
ATOM      7  C5  OXE d   1      -0.606  -2.793   0.849  0.00  0.00    -0.002 A 
ATOM      8  C6  OXE d   1      -1.423  -1.700   1.117  0.00  0.00     0.003 A 
ENDROOT
TORSDOF 0
ENDMDL
