MODEL 1
REMARK minimizedAffinity -3.8465147
REMARK minimizedRMSD -1
REMARK  0 active torsions:
REMARK  status: ('A' for Active; 'I' for Inactive)
ROOT
ATOM      1  C2' OXE d   1      -2.573  -0.512   2.528  0.00  0.00     0.078 C 
ATOM      2  C1' OXE d   1      -1.525   1.730   1.204  0.00  0.00     0.078 C 
ATOM      3  C1  OXE d   1      -0.857   0.399   0.969  0.00  0.00    -0.078 A 
ATOM      4  C2  OXE d   1      -1.347  -0.685   1.657  0.00  0.00    -0.078 A 
ATOM      5  C3  OXE d   1      -0.802  -1.946   1.436  0.00  0.00     0.003 A 
ATOM      6  C4  OXE d   1       0.338  -2.096   0.637  0.00  0.00    -0.002 A 
ATOM      7  C5  OXE d   1       0.877  -0.998  -0.042  0.00  0.00    -0.002 A 
ATOM      8  C6  OXE d   1       0.268   0.246   0.079  0.00  0.00     0.003 A 
ENDROOT
TORSDOF 0
ENDMDL
