MODEL 1
REMARK minimizedAffinity -2.52667212
REMARK minimizedRMSD -1
REMARK  0 active torsions:
REMARK  status: ('A' for Active; 'I' for Inactive)
ROOT
ATOM      1  C2' OXE d   1       0.502   1.140  -1.219  0.00  0.00     0.078 C 
ATOM      2  C1' OXE d   1      -0.970   1.395   1.157  0.00  0.00     0.078 C 
ATOM      3  C1  OXE d   1      -0.292   0.075   0.888  0.00  0.00    -0.078 A 
ATOM      4  C2  OXE d   1       0.387  -0.056  -0.299  0.00  0.00    -0.078 A 
ATOM      5  C3  OXE d   1       1.077  -1.234  -0.573  0.00  0.00     0.003 A 
ATOM      6  C4  OXE d   1       0.957  -2.339   0.279  0.00  0.00    -0.002 A 
ATOM      7  C5  OXE d   1       0.237  -2.240   1.474  0.00  0.00    -0.002 A 
ATOM      8  C6  OXE d   1      -0.356  -1.029   1.814  0.00  0.00     0.003 A 
ENDROOT
TORSDOF 0
ENDMDL
