MODEL 1
REMARK minimizedAffinity -4.05534124
REMARK minimizedRMSD -1
REMARK  0 active torsions:
REMARK  status: ('A' for Active; 'I' for Inactive)
ROOT
ATOM      1  C2' OXE d   1       0.085   1.111  -0.187  0.00  0.00     0.078 C 
ATOM      2  C1' OXE d   1       1.296  -1.422  -0.190  0.00  0.00     0.078 C 
ATOM      3  C1  OXE d   1      -0.019  -1.272   0.532  0.00  0.00    -0.078 A 
ATOM      4  C2  OXE d   1      -0.582  -0.019   0.569  0.00  0.00    -0.078 A 
ATOM      5  C3  OXE d   1      -1.821   0.164   1.175  0.00  0.00     0.003 A 
ATOM      6  C4  OXE d   1      -2.426  -0.884   1.880  0.00  0.00    -0.002 A 
ATOM      7  C5  OXE d   1      -1.851  -2.159   1.890  0.00  0.00    -0.002 A 
ATOM      8  C6  OXE d   1      -0.672  -2.379   1.186  0.00  0.00     0.003 A 
ENDROOT
TORSDOF 0
ENDMDL
