MODEL 1
REMARK minimizedAffinity -3.50333071
REMARK minimizedRMSD -1
REMARK  0 active torsions:
REMARK  status: ('A' for Active; 'I' for Inactive)
ROOT
ATOM      1  C2' OXE d   1       0.536   1.289  -1.461  0.00  0.00     0.078 C 
ATOM      2  C1' OXE d   1      -1.013   1.587   0.861  0.00  0.00     0.078 C 
ATOM      3  C1  OXE d   1      -0.325   0.264   0.639  0.00  0.00    -0.078 A 
ATOM      4  C2  OXE d   1       0.392   0.111  -0.522  0.00  0.00    -0.078 A 
ATOM      5  C3  OXE d   1       1.091  -1.071  -0.750  0.00  0.00     0.003 A 
ATOM      6  C4  OXE d   1       0.945  -2.160   0.118  0.00  0.00    -0.002 A 
ATOM      7  C5  OXE d   1       0.186  -2.039   1.287  0.00  0.00    -0.002 A 
ATOM      8  C6  OXE d   1      -0.419  -0.823   1.583  0.00  0.00     0.003 A 
ENDROOT
TORSDOF 0
ENDMDL
