MODEL 1
REMARK minimizedAffinity -3.35795498
REMARK minimizedRMSD -1
REMARK  0 active torsions:
REMARK  status: ('A' for Active; 'I' for Inactive)
ROOT
ATOM      1  C2' OXE d   1      -2.156   0.365   1.548  0.00  0.00     0.078 C 
ATOM      2  C1' OXE d   1      -0.589  -1.914   1.070  0.00  0.00     0.078 C 
ATOM      3  C1  OXE d   1      -0.153  -0.616   0.438  0.00  0.00    -0.078 A 
ATOM      4  C2  OXE d   1      -0.952   0.484   0.639  0.00  0.00    -0.078 A 
ATOM      5  C3  OXE d   1      -0.567   1.719   0.124  0.00  0.00     0.003 A 
ATOM      6  C4  OXE d   1       0.543   1.818  -0.723  0.00  0.00    -0.002 A 
ATOM      7  C5  OXE d   1       1.348   0.701  -0.973  0.00  0.00    -0.002 A 
ATOM      8  C6  OXE d   1       1.038  -0.511  -0.367  0.00  0.00     0.003 A 
ENDROOT
TORSDOF 0
ENDMDL
