MODEL 1
REMARK minimizedAffinity 0.16238232
REMARK minimizedRMSD -1
REMARK  0 active torsions:
REMARK  status: ('A' for Active; 'I' for Inactive)
ROOT
ATOM      1  C2' OXE d   1      -0.673   1.745   0.379  0.00  0.00     0.078 C 
ATOM      2  C1' OXE d   1      -2.575   0.388   1.934  0.00  0.00     0.078 C 
ATOM      3  C1  OXE d   1      -1.494  -0.430   1.274  0.00  0.00    -0.078 A 
ATOM      4  C2  OXE d   1      -0.595   0.237   0.477  0.00  0.00    -0.078 A 
ATOM      5  C3  OXE d   1       0.456  -0.462  -0.112  0.00  0.00     0.003 A 
ATOM      6  C4  OXE d   1       0.515  -1.858  -0.025  0.00  0.00    -0.002 A 
ATOM      7  C5  OXE d   1      -0.414  -2.561   0.750  0.00  0.00    -0.002 A 
ATOM      8  C6  OXE d   1      -1.397  -1.860   1.439  0.00  0.00     0.003 A 
ENDROOT
TORSDOF 0
ENDMDL
