MODEL 1
REMARK minimizedAffinity -5.73216629
REMARK minimizedRMSD -1
REMARK  0 active torsions:
REMARK  status: ('A' for Active; 'I' for Inactive)
ROOT
ATOM      1  C2' OXE d   1       1.808  -1.871   0.545  0.00  0.00     0.078 C 
ATOM      2  C1' OXE d   1       0.765   0.695   0.084  0.00  0.00     0.078 C 
ATOM      3  C1  OXE d   1      -0.187  -0.379   0.550  0.00  0.00    -0.078 A 
ATOM      4  C2  OXE d   1       0.323  -1.642   0.728  0.00  0.00    -0.078 A 
ATOM      5  C3  OXE d   1      -0.500  -2.656   1.210  0.00  0.00     0.003 A 
ATOM      6  C4  OXE d   1      -1.874  -2.439   1.367  0.00  0.00    -0.002 A 
ATOM      7  C5  OXE d   1      -2.422  -1.170   1.152  0.00  0.00    -0.002 A 
ATOM      8  C6  OXE d   1      -1.586  -0.121   0.786  0.00  0.00     0.003 A 
ENDROOT
TORSDOF 0
ENDMDL
