MODEL 1
REMARK minimizedAffinity -5.4824338
REMARK minimizedRMSD -1
REMARK  0 active torsions:
REMARK  status: ('A' for Active; 'I' for Inactive)
ROOT
ATOM      1  C2' OXE d   1      -3.514  -0.180   1.528  0.00  0.00     0.078 C 
ATOM      2  C1' OXE d   1      -2.799  -2.831   2.114  0.00  0.00     0.078 C 
ATOM      3  C1  OXE d   1      -1.748  -1.937   1.503  0.00  0.00    -0.078 A 
ATOM      4  C2  OXE d   1      -2.120  -0.655   1.177  0.00  0.00    -0.078 A 
ATOM      5  C3  OXE d   1      -1.175   0.227   0.662  0.00  0.00     0.003 A 
ATOM      6  C4  OXE d   1       0.109  -0.224   0.331  0.00  0.00    -0.002 A 
ATOM      7  C5  OXE d   1       0.496  -1.537   0.619  0.00  0.00    -0.002 A 
ATOM      8  C6  OXE d   1      -0.405  -2.392   1.243  0.00  0.00     0.003 A 
ENDROOT
TORSDOF 0
ENDMDL
