MODEL 1
REMARK minimizedAffinity -5.09320116
REMARK minimizedRMSD -1
REMARK  0 active torsions:
REMARK  status: ('A' for Active; 'I' for Inactive)
ROOT
ATOM      1  C2' OXE d   1       0.860  -1.866   0.320  0.00  0.00     0.078 C 
ATOM      2  C1' OXE d   1      -0.265   0.706   0.299  0.00  0.00     0.078 C 
ATOM      3  C1  OXE d   1      -1.100  -0.422   0.851  0.00  0.00    -0.078 A 
ATOM      4  C2  OXE d   1      -0.559  -1.685   0.814  0.00  0.00    -0.078 A 
ATOM      5  C3  OXE d   1      -1.265  -2.753   1.360  0.00  0.00     0.003 A 
ATOM      6  C4  OXE d   1      -2.581  -2.580   1.806  0.00  0.00    -0.002 A 
ATOM      7  C5  OXE d   1      -3.165  -1.309   1.815  0.00  0.00    -0.002 A 
ATOM      8  C6  OXE d   1      -2.425  -0.215   1.381  0.00  0.00     0.003 A 
ENDROOT
TORSDOF 0
ENDMDL
