MODEL 1
REMARK minimizedAffinity -2.29798079
REMARK minimizedRMSD -1
REMARK  0 active torsions:
REMARK  status: ('A' for Active; 'I' for Inactive)
ROOT
ATOM      1  C2' OXE d   1      -1.917   0.127   1.891  0.00  0.00     0.078 C 
ATOM      2  C1' OXE d   1      -0.290  -2.082   1.297  0.00  0.00     0.078 C 
ATOM      3  C1  OXE d   1      -0.022  -0.794   0.561  0.00  0.00    -0.078 A 
ATOM      4  C2  OXE d   1      -0.853   0.269   0.824  0.00  0.00    -0.078 A 
ATOM      5  C3  OXE d   1      -0.617   1.497   0.212  0.00  0.00     0.003 A 
ATOM      6  C4  OXE d   1       0.362   1.617  -0.781  0.00  0.00    -0.002 A 
ATOM      7  C5  OXE d   1       1.194   0.536  -1.093  0.00  0.00    -0.002 A 
ATOM      8  C6  OXE d   1       1.043  -0.661  -0.402  0.00  0.00     0.003 A 
ENDROOT
TORSDOF 0
ENDMDL
