MODEL 1
REMARK minimizedAffinity -3.44114113
REMARK minimizedRMSD -1
REMARK  0 active torsions:
REMARK  status: ('A' for Active; 'I' for Inactive)
ROOT
ATOM      1  C2' OXE d   1       1.372  -1.406  -0.071  0.00  0.00     0.078 C 
ATOM      2  C1' OXE d   1       0.542   1.246  -0.468  0.00  0.00     0.078 C 
ATOM      3  C1  OXE d   1      -0.248   0.399   0.498  0.00  0.00    -0.078 A 
ATOM      4  C2  OXE d   1       0.137  -0.911   0.651  0.00  0.00    -0.078 A 
ATOM      5  C3  OXE d   1      -0.524  -1.721   1.570  0.00  0.00     0.003 A 
ATOM      6  C4  OXE d   1      -1.671  -1.259   2.226  0.00  0.00    -0.002 A 
ATOM      7  C5  OXE d   1      -2.104   0.060   2.054  0.00  0.00    -0.002 A 
ATOM      8  C6  OXE d   1      -1.380   0.913   1.228  0.00  0.00     0.003 A 
ENDROOT
TORSDOF 0
ENDMDL
