MODEL 1
REMARK minimizedAffinity -5.09123135
REMARK minimizedRMSD -1
REMARK  0 active torsions:
REMARK  status: ('A' for Active; 'I' for Inactive)
ROOT
ATOM      1  C2' OXE d   1       0.504  -1.845   0.066  0.00  0.00     0.078 C 
ATOM      2  C1' OXE d   1      -0.448   0.730  -0.521  0.00  0.00     0.078 C 
ATOM      3  C1  OXE d   1      -1.228  -0.100   0.468  0.00  0.00    -0.078 A 
ATOM      4  C2  OXE d   1      -0.781  -1.376   0.714  0.00  0.00    -0.078 A 
ATOM      5  C3  OXE d   1      -1.432  -2.164   1.660  0.00  0.00     0.003 A 
ATOM      6  C4  OXE d   1      -2.625  -1.726   2.247  0.00  0.00    -0.002 A 
ATOM      7  C5  OXE d   1      -3.119  -0.445   1.980  0.00  0.00    -0.002 A 
ATOM      8  C6  OXE d   1      -2.411   0.395   1.128  0.00  0.00     0.003 A 
ENDROOT
TORSDOF 0
ENDMDL
