MODEL 1
REMARK minimizedAffinity -4.51806307
REMARK minimizedRMSD -1
REMARK  0 active torsions:
REMARK  status: ('A' for Active; 'I' for Inactive)
ROOT
ATOM      1  C2' OXE d   1       1.031  -1.124   0.728  0.00  0.00     0.078 C 
ATOM      2  C1' OXE d   1      -0.650   1.124   0.757  0.00  0.00     0.078 C 
ATOM      3  C1  OXE d   1      -1.267  -0.219   1.056  0.00  0.00    -0.078 A 
ATOM      4  C2  OXE d   1      -0.446  -1.319   0.994  0.00  0.00    -0.078 A 
ATOM      5  C3  OXE d   1      -0.952  -2.576   1.315  0.00  0.00     0.003 A 
ATOM      6  C4  OXE d   1      -2.322  -2.749   1.551  0.00  0.00    -0.002 A 
ATOM      7  C5  OXE d   1      -3.182  -1.647   1.579  0.00  0.00    -0.002 A 
ATOM      8  C6  OXE d   1      -2.664  -0.372   1.377  0.00  0.00     0.003 A 
ENDROOT
TORSDOF 0
ENDMDL
