MODEL 1
REMARK minimizedAffinity 14.1016026
REMARK minimizedRMSD -1
REMARK  3 active torsions:
REMARK  status: ('A' for Active; 'I' for Inactive)
REMARK    1  A    between atoms: C3'_2  and  C2'_3 
REMARK    2  A    between atoms: C2'_3  and  C1'_4 
REMARK    3  A    between atoms: C1'_4  and  C1_5 
ROOT
ATOM      1  C1  N4B d   1      -1.113   2.402  -2.954  0.00  0.00    -0.075 A 
ATOM      2  C2  N4B d   1      -0.919   1.383  -1.996  0.00  0.00     0.002 A 
ATOM      3  C3  N4B d   1      -2.004   0.781  -1.405  0.00  0.00     0.002 A 
ATOM      4  C4  N4B d   1      -3.284   1.194  -1.741  0.00  0.00    -0.004 A 
ATOM      5  C5  N4B d   1      -3.463   2.161  -2.686  0.00  0.00     0.002 A 
ATOM      6  C6  N4B d   1      -2.383   2.771  -3.291  0.00  0.00     0.002 A 
ENDROOT
BRANCH   1   7
ATOM      7  C1' N4B d   1       0.042   3.148  -3.564  0.00  0.00     0.057 C 
BRANCH   7   8
ATOM      8  C2' N4B d   1       0.327   2.582  -4.952  0.00  0.00     0.009 C 
BRANCH   8   9
ATOM      9  C3' N4B d   1       0.441   3.676  -5.999  0.00  0.00     0.004 C 
ATOM     10  C4' N4B d   1       1.566   4.628  -5.725  0.00  0.00     0.003 C 
ENDBRANCH   8   9
ENDBRANCH   7   8
ENDBRANCH   1   7
TORSDOF 3
ENDMDL
