MODEL 1
REMARK minimizedAffinity 9.19768238
REMARK minimizedRMSD -1
REMARK  3 active torsions:
REMARK  status: ('A' for Active; 'I' for Inactive)
REMARK    1  A    between atoms: C3'_2  and  C2'_3 
REMARK    2  A    between atoms: C2'_3  and  C1'_4 
REMARK    3  A    between atoms: C1'_4  and  C1_5 
ROOT
ATOM      1  C1  N4B d   1      -3.741   2.494  -3.798  0.00  0.00    -0.075 A 
ATOM      2  C2  N4B d   1      -4.676   1.507  -4.182  0.00  0.00     0.002 A 
ATOM      3  C3  N4B d   1      -5.767   1.853  -4.942  0.00  0.00     0.002 A 
ATOM      4  C4  N4B d   1      -5.953   3.177  -5.312  0.00  0.00    -0.004 A 
ATOM      5  C5  N4B d   1      -5.032   4.119  -4.959  0.00  0.00     0.002 A 
ATOM      6  C6  N4B d   1      -3.929   3.785  -4.199  0.00  0.00     0.002 A 
ENDROOT
BRANCH   1   7
ATOM      7  C1' N4B d   1      -2.580   2.179  -2.896  0.00  0.00     0.057 C 
BRANCH   7   8
ATOM      8  C2' N4B d   1      -3.061   1.295  -1.749  0.00  0.00     0.009 C 
BRANCH   8   9
ATOM      9  C3' N4B d   1      -2.722  -0.168  -1.978  0.00  0.00     0.004 C 
ATOM     10  C4' N4B d   1      -2.132  -0.823  -0.765  0.00  0.00     0.003 C 
ENDBRANCH   8   9
ENDBRANCH   7   8
ENDBRANCH   1   7
TORSDOF 3
ENDMDL
