MODEL 1
REMARK minimizedAffinity 14.0972538
REMARK minimizedRMSD -1
REMARK  3 active torsions:
REMARK  status: ('A' for Active; 'I' for Inactive)
REMARK    1  A    between atoms: C3'_2  and  C2'_3 
REMARK    2  A    between atoms: C2'_3  and  C1'_4 
REMARK    3  A    between atoms: C1'_4  and  C1_5 
ROOT
ATOM      1  C1  N4B d   1      -2.911  -0.025  -0.940  0.00  0.00    -0.075 A 
ATOM      2  C2  N4B d   1      -3.020  -1.283  -0.308  0.00  0.00     0.002 A 
ATOM      3  C3  N4B d   1      -3.644  -1.387   0.911  0.00  0.00     0.002 A 
ATOM      4  C4  N4B d   1      -4.148  -0.250   1.523  0.00  0.00    -0.004 A 
ATOM      5  C5  N4B d   1      -4.061   0.958   0.894  0.00  0.00     0.002 A 
ATOM      6  C6  N4B d   1      -3.440   1.077  -0.333  0.00  0.00     0.002 A 
ENDROOT
BRANCH   1   7
ATOM      7  C1' N4B d   1      -2.162   0.152  -2.233  0.00  0.00     0.057 C 
BRANCH   7   8
ATOM      8  C2' N4B d   1      -1.562   1.555  -2.275  0.00  0.00     0.009 C 
BRANCH   8   9
ATOM      9  C3' N4B d   1      -2.098   2.367  -3.442  0.00  0.00     0.004 C 
ATOM     10  C4' N4B d   1      -1.014   3.045  -4.225  0.00  0.00     0.003 C 
ENDBRANCH   8   9
ENDBRANCH   7   8
ENDBRANCH   1   7
TORSDOF 3
ENDMDL
