MODEL 1
REMARK minimizedAffinity 4.16882038
REMARK minimizedRMSD -1
REMARK  3 active torsions:
REMARK  status: ('A' for Active; 'I' for Inactive)
REMARK    1  A    between atoms: C3'_2  and  C2'_3 
REMARK    2  A    between atoms: C2'_3  and  C1'_4 
REMARK    3  A    between atoms: C1'_4  and  C1_5 
ROOT
ATOM      1  C1  N4B d   1       2.557  -2.029   3.765  0.00  0.00    -0.075 A 
ATOM      2  C2  N4B d   1       1.985  -2.930   2.839  0.00  0.00     0.002 A 
ATOM      3  C3  N4B d   1       0.763  -2.652   2.276  0.00  0.00     0.002 A 
ATOM      4  C4  N4B d   1       0.089  -1.495   2.636  0.00  0.00    -0.004 A 
ATOM      5  C5  N4B d   1       0.660  -0.618   3.512  0.00  0.00     0.002 A 
ATOM      6  C6  N4B d   1       1.889  -0.882   4.082  0.00  0.00     0.002 A 
ENDROOT
BRANCH   1   7
ATOM      7  C1' N4B d   1       3.850  -2.331   4.471  0.00  0.00     0.057 C 
BRANCH   7   8
ATOM      8  C2' N4B d   1       3.553  -3.116   5.745  0.00  0.00     0.009 C 
BRANCH   8   9
ATOM      9  C3' N4B d   1       4.588  -4.198   6.000  0.00  0.00     0.004 C 
ATOM     10  C4' N4B d   1       3.999  -5.577   5.998  0.00  0.00     0.003 C 
ENDBRANCH   8   9
ENDBRANCH   7   8
ENDBRANCH   1   7
TORSDOF 3
ENDMDL
