MODEL 1
REMARK minimizedAffinity 1.92550766
REMARK minimizedRMSD -1
REMARK  3 active torsions:
REMARK  status: ('A' for Active; 'I' for Inactive)
REMARK    1  A    between atoms: C3'_2  and  C2'_3 
REMARK    2  A    between atoms: C2'_3  and  C1'_4 
REMARK    3  A    between atoms: C1'_4  and  C1_5 
ROOT
ATOM      1  C1  N4B d   1      -3.752   3.689  -4.995  0.00  0.00    -0.075 A 
ATOM      2  C2  N4B d   1      -4.890   3.676  -5.830  0.00  0.00     0.002 A 
ATOM      3  C3  N4B d   1      -5.630   4.821  -6.000  0.00  0.00     0.002 A 
ATOM      4  C4  N4B d   1      -5.262   5.980  -5.333  0.00  0.00    -0.004 A 
ATOM      5  C5  N4B d   1      -4.146   5.991  -4.549  0.00  0.00     0.002 A 
ATOM      6  C6  N4B d   1      -3.391   4.849  -4.372  0.00  0.00     0.002 A 
ENDROOT
BRANCH   1   7
ATOM      7  C1' N4B d   1      -2.961   2.441  -4.710  0.00  0.00     0.057 C 
BRANCH   7   8
ATOM      8  C2' N4B d   1      -1.882   2.756  -3.678  0.00  0.00     0.009 C 
BRANCH   8   9
ATOM      9  C3' N4B d   1      -1.852   1.731  -2.557  0.00  0.00     0.004 C 
ATOM     10  C4' N4B d   1      -3.169   1.603  -1.852  0.00  0.00     0.003 C 
ENDBRANCH   8   9
ENDBRANCH   7   8
ENDBRANCH   1   7
TORSDOF 3
ENDMDL
