MODEL 1
REMARK minimizedAffinity 14.8456964
REMARK minimizedRMSD -1
REMARK  0 active torsions:
REMARK  status: ('A' for Active; 'I' for Inactive)
ROOT
ATOM      1  C   UNL d   1       1.539  -1.502   2.556  0.00  0.00     0.077 C 
ATOM      2  C1  UNL d   1       0.225  -1.627   1.843  0.00  0.00    -0.074 A 
ATOM      3  C2  UNL d   1      -0.080  -2.767   1.092  0.00  0.00    -0.005 A 
ATOM      4  C3  UNL d   1      -1.310  -2.873   0.443  0.00  0.00     0.006 A 
ATOM      5  C4  UNL d   1      -2.245  -1.842   0.537  0.00  0.00    -0.005 A 
ATOM      6  C5  UNL d   1      -1.958  -0.695   1.285  0.00  0.00    -0.074 A 
ATOM      7  C6  UNL d   1      -2.957   0.417   1.405  0.00  0.00     0.077 C 
ATOM      8  C7  UNL d   1      -0.723  -0.599   1.940  0.00  0.00    -0.001 A 
ENDROOT
TORSDOF 0
ENDMDL
