MODEL 1
REMARK minimizedAffinity 22.7949638
REMARK minimizedRMSD -1
REMARK  0 active torsions:
REMARK  status: ('A' for Active; 'I' for Inactive)
ROOT
ATOM      1  C   UNL d   1      -2.352  -2.114  -2.985  0.00  0.00     0.077 C 
ATOM      2  C1  UNL d   1      -1.876  -3.294  -3.779  0.00  0.00    -0.074 A 
ATOM      3  C2  UNL d   1      -0.522  -3.646  -3.803  0.00  0.00    -0.005 A 
ATOM      4  C3  UNL d   1      -0.096  -4.752  -4.537  0.00  0.00     0.006 A 
ATOM      5  C4  UNL d   1      -1.016  -5.516  -5.255  0.00  0.00    -0.005 A 
ATOM      6  C5  UNL d   1      -2.374  -5.181  -5.242  0.00  0.00    -0.074 A 
ATOM      7  C6  UNL d   1      -3.378  -5.998  -6.000  0.00  0.00     0.077 C 
ATOM      8  C7  UNL d   1      -2.796  -4.072  -4.496  0.00  0.00    -0.001 A 
ENDROOT
TORSDOF 0
ENDMDL
