MODEL 1
REMARK minimizedAffinity 9.2659111
REMARK minimizedRMSD -1
REMARK  0 active torsions:
REMARK  status: ('A' for Active; 'I' for Inactive)
ROOT
ATOM      1  C   UNL d   1      -1.509  -3.429  -2.536  0.00  0.00     0.077 C 
ATOM      2  C1  UNL d   1      -1.518  -4.314  -3.747  0.00  0.00    -0.074 A 
ATOM      3  C2  UNL d   1      -0.322  -4.746  -4.329  0.00  0.00    -0.005 A 
ATOM      4  C3  UNL d   1      -0.345  -5.576  -5.450  0.00  0.00     0.006 A 
ATOM      5  C4  UNL d   1      -1.562  -5.983  -5.998  0.00  0.00    -0.005 A 
ATOM      6  C5  UNL d   1      -2.768  -5.562  -5.428  0.00  0.00    -0.074 A 
ATOM      7  C6  UNL d   1      -4.085  -5.997  -5.999  0.00  0.00     0.077 C 
ATOM      8  C7  UNL d   1      -2.736  -4.733  -4.298  0.00  0.00    -0.001 A 
ENDROOT
TORSDOF 0
ENDMDL
