MODEL 1
REMARK minimizedAffinity 13.6654654
REMARK minimizedRMSD -1
REMARK  0 active torsions:
REMARK  status: ('A' for Active; 'I' for Inactive)
ROOT
ATOM      1  C   UNL d   1       5.997   5.129  -1.210  0.00  0.00     0.077 C 
ATOM      2  C1  UNL d   1       5.347   4.342  -2.308  0.00  0.00    -0.074 A 
ATOM      3  C2  UNL d   1       5.999   4.135  -3.528  0.00  0.00    -0.005 A 
ATOM      4  C3  UNL d   1       5.386   3.393  -4.537  0.00  0.00     0.006 A 
ATOM      5  C4  UNL d   1       4.116   2.850  -4.337  0.00  0.00    -0.005 A 
ATOM      6  C5  UNL d   1       3.449   3.045  -3.123  0.00  0.00    -0.074 A 
ATOM      7  C6  UNL d   1       2.088   2.461  -2.888  0.00  0.00     0.077 C 
ATOM      8  C7  UNL d   1       4.075   3.787  -2.112  0.00  0.00    -0.001 A 
ENDROOT
TORSDOF 0
ENDMDL
