MODEL 1
REMARK minimizedAffinity 8.68453789
REMARK minimizedRMSD -1
REMARK  0 active torsions:
REMARK  status: ('A' for Active; 'I' for Inactive)
ROOT
ATOM      1  C   UNL d   1       0.991  -2.848   2.341  0.00  0.00     0.077 C 
ATOM      2  C1  UNL d   1      -0.247  -2.044   2.074  0.00  0.00    -0.074 A 
ATOM      3  C2  UNL d   1      -1.464  -2.672   1.789  0.00  0.00    -0.005 A 
ATOM      4  C3  UNL d   1      -2.609  -1.911   1.552  0.00  0.00     0.006 A 
ATOM      5  C4  UNL d   1      -2.548  -0.518   1.597  0.00  0.00    -0.005 A 
ATOM      6  C5  UNL d   1      -1.341   0.127   1.881  0.00  0.00    -0.074 A 
ATOM      7  C6  UNL d   1      -1.261   1.623   1.943  0.00  0.00     0.077 C 
ATOM      8  C7  UNL d   1      -0.196  -0.644   2.125  0.00  0.00    -0.001 A 
ENDROOT
TORSDOF 0
ENDMDL
