MODEL 1
REMARK minimizedAffinity 1.8223989
REMARK minimizedRMSD -1
REMARK  0 active torsions:
REMARK  status: ('A' for Active; 'I' for Inactive)
ROOT
ATOM      1  C   UNL d   1      -5.209   1.323   0.573  0.00  0.00     0.077 C 
ATOM      2  C1  UNL d   1      -4.208   0.852   1.585  0.00  0.00    -0.074 A 
ATOM      3  C2  UNL d   1      -4.186   1.387   2.877  0.00  0.00    -0.005 A 
ATOM      4  C3  UNL d   1      -3.255   0.932   3.811  0.00  0.00     0.006 A 
ATOM      5  C4  UNL d   1      -2.339  -0.061   3.464  0.00  0.00    -0.005 A 
ATOM      6  C5  UNL d   1      -2.346  -0.609   2.177  0.00  0.00    -0.074 A 
ATOM      7  C6  UNL d   1      -1.375  -1.684   1.790  0.00  0.00     0.077 C 
ATOM      8  C7  UNL d   1      -3.289  -0.151   1.246  0.00  0.00    -0.001 A 
ENDROOT
TORSDOF 0
ENDMDL
