MODEL 1
REMARK minimizedAffinity 9.27911186
REMARK minimizedRMSD -1
REMARK  0 active torsions:
REMARK  status: ('A' for Active; 'I' for Inactive)
ROOT
ATOM      1  C   UNL d   1       1.760  -2.378   3.413  0.00  0.00     0.077 C 
ATOM      2  C1  UNL d   1       0.356  -1.972   3.076  0.00  0.00    -0.074 A 
ATOM      3  C2  UNL d   1      -0.270  -0.920   3.754  0.00  0.00    -0.005 A 
ATOM      4  C3  UNL d   1      -1.572  -0.548   3.423  0.00  0.00     0.006 A 
ATOM      5  C4  UNL d   1      -2.261  -1.221   2.413  0.00  0.00    -0.005 A 
ATOM      6  C5  UNL d   1      -1.651  -2.274   1.724  0.00  0.00    -0.074 A 
ATOM      7  C6  UNL d   1      -2.373  -3.002   0.630  0.00  0.00     0.077 C 
ATOM      8  C7  UNL d   1      -0.339  -2.638   2.058  0.00  0.00    -0.001 A 
ENDROOT
TORSDOF 0
ENDMDL
