MODEL 1
REMARK minimizedAffinity 14.1230679
REMARK minimizedRMSD -1
REMARK  0 active torsions:
REMARK  status: ('A' for Active; 'I' for Inactive)
ROOT
ATOM      1  C   UNL d   1       0.921  -3.322   1.127  0.00  0.00     0.077 C 
ATOM      2  C1  UNL d   1      -0.419  -2.689   1.361  0.00  0.00    -0.074 A 
ATOM      3  C2  UNL d   1      -1.588  -3.276   0.867  0.00  0.00    -0.005 A 
ATOM      4  C3  UNL d   1      -2.827  -2.681   1.100  0.00  0.00     0.006 A 
ATOM      5  C4  UNL d   1      -2.910  -1.494   1.830  0.00  0.00    -0.005 A 
ATOM      6  C5  UNL d   1      -1.752  -0.893   2.333  0.00  0.00    -0.074 A 
ATOM      7  C6  UNL d   1      -1.824   0.377   3.128  0.00  0.00     0.077 C 
ATOM      8  C7  UNL d   1      -0.511  -1.501   2.100  0.00  0.00    -0.001 A 
ENDROOT
TORSDOF 0
ENDMDL
