MODEL 1
REMARK minimizedAffinity 9.6347599
REMARK minimizedRMSD -1
REMARK  0 active torsions:
REMARK  status: ('A' for Active; 'I' for Inactive)
ROOT
ATOM      1  C   UNL d   1      -0.501   3.981  -4.111  0.00  0.00     0.077 C 
ATOM      2  C1  UNL d   1       0.623   3.421  -3.291  0.00  0.00    -0.074 A 
ATOM      3  C2  UNL d   1       0.390   2.898  -2.015  0.00  0.00    -0.005 A 
ATOM      4  C3  UNL d   1       1.444   2.372  -1.268  0.00  0.00     0.006 A 
ATOM      5  C4  UNL d   1       2.738   2.364  -1.788  0.00  0.00    -0.005 A 
ATOM      6  C5  UNL d   1       2.990   2.882  -3.062  0.00  0.00    -0.074 A 
ATOM      7  C6  UNL d   1       4.374   2.872  -3.640  0.00  0.00     0.077 C 
ATOM      8  C7  UNL d   1       1.925   3.402  -3.810  0.00  0.00    -0.001 A 
ENDROOT
TORSDOF 0
ENDMDL
