MODEL 1
REMARK minimizedAffinity 6.27031279
REMARK minimizedRMSD -1
REMARK  0 active torsions:
REMARK  status: ('A' for Active; 'I' for Inactive)
ROOT
ATOM      1  C   UNL d   1      -5.998  -0.060  -4.025  0.00  0.00     0.077 C 
ATOM      2  C1  UNL d   1      -5.998   0.445  -2.612  0.00  0.00    -0.074 A 
ATOM      3  C2  UNL d   1      -6.000  -0.442  -1.532  0.00  0.00    -0.005 A 
ATOM      4  C3  UNL d   1      -5.991   0.042  -0.224  0.00  0.00     0.006 A 
ATOM      5  C4  UNL d   1      -5.980   1.417   0.016  0.00  0.00    -0.005 A 
ATOM      6  C5  UNL d   1      -5.977   2.319  -1.052  0.00  0.00    -0.074 A 
ATOM      7  C6  UNL d   1      -5.956   3.800  -0.811  0.00  0.00     0.077 C 
ATOM      8  C7  UNL d   1      -5.979   1.825  -2.363  0.00  0.00    -0.001 A 
ENDROOT
TORSDOF 0
ENDMDL
