MODEL 1
REMARK minimizedAffinity 8.16993523
REMARK minimizedRMSD -1
REMARK  0 active torsions:
REMARK  status: ('A' for Active; 'I' for Inactive)
ROOT
ATOM      1  C   UNL d   1       2.001   3.415  -2.742  0.00  0.00     0.077 C 
ATOM      2  C1  UNL d   1       3.394   3.918  -2.981  0.00  0.00    -0.074 A 
ATOM      3  C2  UNL d   1       4.062   3.642  -4.178  0.00  0.00    -0.005 A 
ATOM      4  C3  UNL d   1       5.354   4.125  -4.389  0.00  0.00     0.006 A 
ATOM      5  C4  UNL d   1       5.989   4.887  -3.408  0.00  0.00    -0.005 A 
ATOM      6  C5  UNL d   1       5.335   5.174  -2.205  0.00  0.00    -0.074 A 
ATOM      7  C6  UNL d   1       5.999   6.000  -1.144  0.00  0.00     0.077 C 
ATOM      8  C7  UNL d   1       4.035   4.691  -2.003  0.00  0.00    -0.001 A 
ENDROOT
TORSDOF 0
ENDMDL
