MODEL 1
REMARK minimizedAffinity 10.6703491
REMARK minimizedRMSD -1
REMARK  0 active torsions:
REMARK  status: ('A' for Active; 'I' for Inactive)
ROOT
ATOM      1  C   UNL d   1       0.668   6.000  -1.516  0.00  0.00     0.077 C 
ATOM      2  C1  UNL d   1       1.555   4.839  -1.854  0.00  0.00    -0.074 A 
ATOM      3  C2  UNL d   1       1.015   3.618  -2.268  0.00  0.00    -0.005 A 
ATOM      4  C3  UNL d   1       1.853   2.550  -2.588  0.00  0.00     0.006 A 
ATOM      5  C4  UNL d   1       3.238   2.692  -2.497  0.00  0.00    -0.005 A 
ATOM      6  C5  UNL d   1       3.797   3.906  -2.085  0.00  0.00    -0.074 A 
ATOM      7  C6  UNL d   1       5.284   4.079  -1.992  0.00  0.00     0.077 C 
ATOM      8  C7  UNL d   1       2.948   4.977  -1.772  0.00  0.00    -0.001 A 
ENDROOT
TORSDOF 0
ENDMDL
