MODEL 1
REMARK minimizedAffinity 14.6360035
REMARK minimizedRMSD -1
REMARK  0 active torsions:
REMARK  status: ('A' for Active; 'I' for Inactive)
ROOT
ATOM      1  C   UNL d   1      -0.206   4.020  -3.661  0.00  0.00     0.077 C 
ATOM      2  C1  UNL d   1       0.851   3.337  -2.845  0.00  0.00    -0.074 A 
ATOM      3  C2  UNL d   1       2.094   3.018  -3.401  0.00  0.00    -0.005 A 
ATOM      4  C3  UNL d   1       3.070   2.391  -2.628  0.00  0.00     0.006 A 
ATOM      5  C4  UNL d   1       2.814   2.077  -1.293  0.00  0.00    -0.005 A 
ATOM      6  C5  UNL d   1       1.577   2.388  -0.719  0.00  0.00    -0.074 A 
ATOM      7  C6  UNL d   1       1.289   2.066   0.717  0.00  0.00     0.077 C 
ATOM      8  C7  UNL d   1       0.604   3.025  -1.501  0.00  0.00    -0.001 A 
ENDROOT
TORSDOF 0
ENDMDL
