MODEL 1
REMARK minimizedAffinity 2.59468818
REMARK minimizedRMSD -1
REMARK  0 active torsions:
REMARK  status: ('A' for Active; 'I' for Inactive)
ROOT
ATOM      1  C   UNL d   1       6.000   3.794  -3.378  0.00  0.00     0.077 C 
ATOM      2  C1  UNL d   1       5.298   2.470  -3.445  0.00  0.00    -0.074 A 
ATOM      3  C2  UNL d   1       6.000   1.300  -3.750  0.00  0.00    -0.005 A 
ATOM      4  C3  UNL d   1       5.335   0.074  -3.800  0.00  0.00     0.006 A 
ATOM      5  C4  UNL d   1       3.965   0.007  -3.546  0.00  0.00    -0.005 A 
ATOM      6  C5  UNL d   1       3.247   1.167  -3.239  0.00  0.00    -0.074 A 
ATOM      7  C6  UNL d   1       1.775   1.112  -2.953  0.00  0.00     0.077 C 
ATOM      8  C7  UNL d   1       3.923   2.394  -3.184  0.00  0.00    -0.001 A 
ENDROOT
TORSDOF 0
ENDMDL
