MODEL 1
REMARK minimizedAffinity 13.8546591
REMARK minimizedRMSD -1
REMARK  0 active torsions:
REMARK  status: ('A' for Active; 'I' for Inactive)
ROOT
ATOM      1  C   UNL d   1      -1.939  -4.008  -1.763  0.00  0.00     0.077 C 
ATOM      2  C1  UNL d   1      -1.832  -4.237  -3.242  0.00  0.00    -0.074 A 
ATOM      3  C2  UNL d   1      -0.747  -3.738  -3.969  0.00  0.00    -0.005 A 
ATOM      4  C3  UNL d   1      -0.655  -3.968  -5.342  0.00  0.00     0.006 A 
ATOM      5  C4  UNL d   1      -1.646  -4.697  -6.000  0.00  0.00    -0.005 A 
ATOM      6  C5  UNL d   1      -2.738  -5.205  -5.289  0.00  0.00    -0.074 A 
ATOM      7  C6  UNL d   1      -3.806  -6.000  -5.979  0.00  0.00     0.077 C 
ATOM      8  C7  UNL d   1      -2.819  -4.976  -3.908  0.00  0.00    -0.001 A 
ENDROOT
TORSDOF 0
ENDMDL
