MODEL 1
REMARK minimizedAffinity 2.60344982
REMARK minimizedRMSD -1
REMARK  0 active torsions:
REMARK  status: ('A' for Active; 'I' for Inactive)
ROOT
ATOM      1  C   UNL d   1       1.127  -3.409  -0.046  0.00  0.00     0.077 C 
ATOM      2  C1  UNL d   1       0.446  -2.463   0.898  0.00  0.00    -0.074 A 
ATOM      3  C2  UNL d   1       1.070  -2.056   2.082  0.00  0.00    -0.005 A 
ATOM      4  C3  UNL d   1       0.428  -1.168   2.946  0.00  0.00     0.006 A 
ATOM      5  C4  UNL d   1      -0.842  -0.680   2.635  0.00  0.00    -0.005 A 
ATOM      6  C5  UNL d   1      -1.481  -1.076   1.455  0.00  0.00    -0.074 A 
ATOM      7  C6  UNL d   1      -2.841  -0.553   1.101  0.00  0.00     0.077 C 
ATOM      8  C7  UNL d   1      -0.826  -1.962   0.589  0.00  0.00    -0.001 A 
ENDROOT
TORSDOF 0
ENDMDL
