MODEL 1
REMARK minimizedAffinity -2.05499482
REMARK minimizedRMSD -1
REMARK  0 active torsions:
REMARK  status: ('A' for Active; 'I' for Inactive)
ROOT
ATOM      1  C   UNL d   1       2.520   1.452  -0.951  0.00  0.00     0.077 C 
ATOM      2  C1  UNL d   1       1.547   0.474  -0.361  0.00  0.00    -0.074 A 
ATOM      3  C2  UNL d   1       1.948  -0.430   0.627  0.00  0.00    -0.005 A 
ATOM      4  C3  UNL d   1       1.029  -1.327   1.173  0.00  0.00     0.006 A 
ATOM      5  C4  UNL d   1      -0.296  -1.329   0.737  0.00  0.00    -0.005 A 
ATOM      6  C5  UNL d   1      -0.715  -0.431  -0.250  0.00  0.00    -0.074 A 
ATOM      7  C6  UNL d   1      -2.138  -0.413  -0.724  0.00  0.00     0.077 C 
ATOM      8  C7  UNL d   1       0.212   0.472  -0.789  0.00  0.00    -0.001 A 
ENDROOT
TORSDOF 0
ENDMDL
