MODEL 1
REMARK minimizedAffinity 4.89313698
REMARK minimizedRMSD -1
REMARK  0 active torsions:
REMARK  status: ('A' for Active; 'I' for Inactive)
ROOT
ATOM      1  C   UNL d   1       1.404  -2.263   4.442  0.00  0.00    -0.002 A 
ATOM      2  C1  UNL d   1       0.248  -3.030   4.474  0.00  0.00     0.010 A 
ATOM      3  C2  UNL d   1      -0.864  -2.672   3.710  0.00  0.00     0.041 A 
ATOM      4  C3  UNL d   1      -0.793  -1.519   2.903  0.00  0.00    -0.075 A 
ATOM      5  S   UNL d   1      -2.031  -0.887   1.882  0.00  0.00     0.015 SA
ATOM      6  C4  UNL d   1      -1.054   0.416   1.379  0.00  0.00     0.022 A 
ATOM      7  C5  UNL d   1       0.189   0.385   1.965  0.00  0.00     0.026 A 
ATOM      8  C6  UNL d   1       0.360  -0.731   2.853  0.00  0.00    -0.082 A 
ATOM      9  C7  UNL d   1       1.470  -1.120   3.640  0.00  0.00     0.045 A 
ENDROOT
TORSDOF 0
ENDMDL
