MODEL 1
REMARK minimizedAffinity 2.86135173
REMARK minimizedRMSD -1
REMARK  0 active torsions:
REMARK  status: ('A' for Active; 'I' for Inactive)
ROOT
ATOM      1  C   UNL d   1      -0.755   0.107   1.641  0.00  0.00    -0.002 A 
ATOM      2  C1  UNL d   1       0.513   0.084   1.079  0.00  0.00     0.010 A 
ATOM      3  C2  UNL d   1       1.583  -0.498   1.762  0.00  0.00     0.041 A 
ATOM      4  C3  UNL d   1       1.354  -1.065   3.031  0.00  0.00    -0.075 A 
ATOM      5  S   UNL d   1       2.512  -1.833   4.051  0.00  0.00     0.015 SA
ATOM      6  C4  UNL d   1       1.350  -2.150   5.257  0.00  0.00     0.022 A 
ATOM      7  C5  UNL d   1       0.104  -1.687   4.907  0.00  0.00     0.026 A 
ATOM      8  C6  UNL d   1       0.085  -1.055   3.618  0.00  0.00    -0.082 A 
ATOM      9  C7  UNL d   1      -0.978  -0.456   2.901  0.00  0.00     0.045 A 
ENDROOT
TORSDOF 0
ENDMDL
