MODEL 1
REMARK minimizedAffinity -2.85387421
REMARK minimizedRMSD -1
REMARK  0 active torsions:
REMARK  status: ('A' for Active; 'I' for Inactive)
ROOT
ATOM      1  C   UNL d   1      -1.449   0.256   1.773  0.00  0.00    -0.002 A 
ATOM      2  C1  UNL d   1      -0.121   0.648   1.673  0.00  0.00     0.010 A 
ATOM      3  C2  UNL d   1       0.865   0.016   2.432  0.00  0.00     0.041 A 
ATOM      4  C3  UNL d   1       0.492  -1.028   3.301  0.00  0.00    -0.075 A 
ATOM      5  S   UNL d   1       1.529  -1.947   4.327  0.00  0.00     0.015 SA
ATOM      6  C4  UNL d   1       0.234  -2.883   4.922  0.00  0.00     0.022 A 
ATOM      7  C5  UNL d   1      -0.967  -2.516   4.362  0.00  0.00     0.026 A 
ATOM      8  C6  UNL d   1      -0.838  -1.442   3.418  0.00  0.00    -0.082 A 
ATOM      9  C7  UNL d   1      -1.815  -0.780   2.636  0.00  0.00     0.045 A 
ENDROOT
TORSDOF 0
ENDMDL
