MODEL 1
REMARK minimizedAffinity 9.73668385
REMARK minimizedRMSD -1
REMARK  0 active torsions:
REMARK  status: ('A' for Active; 'I' for Inactive)
ROOT
ATOM      1  C   UNL d   1      -0.669  -0.891   2.084  0.00  0.00    -0.002 A 
ATOM      2  C1  UNL d   1      -0.391   0.468   2.052  0.00  0.00     0.010 A 
ATOM      3  C2  UNL d   1      -1.045   1.306   1.146  0.00  0.00     0.041 A 
ATOM      4  C3  UNL d   1      -1.993   0.749   0.266  0.00  0.00    -0.075 A 
ATOM      5  S   UNL d   1      -2.918   1.582  -0.928  0.00  0.00     0.015 SA
ATOM      6  C4  UNL d   1      -3.705   0.153  -1.423  0.00  0.00     0.022 A 
ATOM      7  C5  UNL d   1      -3.284  -0.942  -0.706  0.00  0.00     0.026 A 
ATOM      8  C6  UNL d   1      -2.291  -0.616   0.279  0.00  0.00    -0.082 A 
ATOM      9  C7  UNL d   1      -1.611  -1.439   1.209  0.00  0.00     0.045 A 
ENDROOT
TORSDOF 0
ENDMDL
