MODEL 1
REMARK minimizedAffinity 7.31373119
REMARK minimizedRMSD -1
REMARK  0 active torsions:
REMARK  status: ('A' for Active; 'I' for Inactive)
ROOT
ATOM      1  C   UNL d   1      -2.630   0.870  -1.605  0.00  0.00    -0.002 A 
ATOM      2  C1  UNL d   1      -2.019   1.906  -2.298  0.00  0.00     0.010 A 
ATOM      3  C2  UNL d   1      -2.246   2.078  -3.665  0.00  0.00     0.041 A 
ATOM      4  C3  UNL d   1      -3.108   1.184  -4.330  0.00  0.00    -0.075 A 
ATOM      5  S   UNL d   1      -3.536   1.201  -6.000  0.00  0.00     0.015 SA
ATOM      6  C4  UNL d   1      -4.540  -0.166  -5.833  0.00  0.00     0.022 A 
ATOM      7  C5  UNL d   1      -4.560  -0.637  -4.542  0.00  0.00     0.026 A 
ATOM      8  C6  UNL d   1      -3.736   0.133  -3.654  0.00  0.00    -0.082 A 
ATOM      9  C7  UNL d   1      -3.484  -0.015  -2.268  0.00  0.00     0.045 A 
ENDROOT
TORSDOF 0
ENDMDL
