MODEL 1
REMARK minimizedAffinity 8.34473801
REMARK minimizedRMSD -1
REMARK  0 active torsions:
REMARK  status: ('A' for Active; 'I' for Inactive)
ROOT
ATOM      1  C   UNL d   1       1.939  -0.874   2.591  0.00  0.00    -0.002 A 
ATOM      2  C1  UNL d   1       1.214  -1.634   3.498  0.00  0.00     0.010 A 
ATOM      3  C2  UNL d   1      -0.182  -1.608   3.488  0.00  0.00     0.041 A 
ATOM      4  C3  UNL d   1      -0.843  -0.800   2.542  0.00  0.00    -0.075 A 
ATOM      5  S   UNL d   1      -2.545  -0.612   2.344  0.00  0.00     0.015 SA
ATOM      6  C4  UNL d   1      -2.349   0.480   1.051  0.00  0.00     0.022 A 
ATOM      7  C5  UNL d   1      -1.024   0.707   0.764  0.00  0.00     0.026 A 
ATOM      8  C6  UNL d   1      -0.134  -0.027   1.619  0.00  0.00    -0.082 A 
ATOM      9  C7  UNL d   1       1.280  -0.074   1.654  0.00  0.00     0.045 A 
ENDROOT
TORSDOF 0
ENDMDL
