MODEL 1
REMARK minimizedAffinity 2.672544
REMARK minimizedRMSD -1
REMARK  0 active torsions:
REMARK  status: ('A' for Active; 'I' for Inactive)
ROOT
ATOM      1  C   UNL d   1      -2.688   0.696  -2.673  0.00  0.00     0.124 A 
ATOM      2  C1  UNL d   1      -3.700   1.084  -3.540  0.00  0.00     0.062 A 
ATOM      3  C2  UNL d   1      -3.764   2.396  -3.999  0.00  0.00     0.162 A 
ATOM      4  C3  UNL d   1      -2.811   3.330  -3.594  0.00  0.00    -0.034 A 
ATOM      5  C4  UNL d   1      -1.796   2.933  -2.721  0.00  0.00     0.162 A 
ATOM      6  C5  UNL d   1      -1.737   1.620  -2.265  0.00  0.00     0.062 A 
ATOM      7  F   UNL d   1      -0.758   1.247  -1.427  0.00  0.00    -0.097 F 
ATOM      8  F1  UNL d   1      -0.864   3.806  -2.311  0.00  0.00    -0.096 F 
ATOM      9  I   UNL d   1      -2.902   5.293  -4.279  0.00  0.00    -0.060 I 
ATOM     10  F2  UNL d   1      -4.753   2.743  -4.836  0.00  0.00    -0.096 F 
ATOM     11  F3  UNL d   1      -4.621   0.192  -3.935  0.00  0.00    -0.097 F 
ATOM     12  F4  UNL d   1      -2.630  -0.567  -2.231  0.00  0.00    -0.092 F 
ENDROOT
TORSDOF 0
ENDMDL
