MODEL 1
REMARK minimizedAffinity 4.6503644
REMARK minimizedRMSD -1
REMARK  0 active torsions:
REMARK  status: ('A' for Active; 'I' for Inactive)
ROOT
ATOM      1  C   UNL d   1      -0.420  -0.431   2.988  0.00  0.00     0.124 A 
ATOM      2  C1  UNL d   1      -1.753  -0.140   2.731  0.00  0.00     0.062 A 
ATOM      3  C2  UNL d   1      -2.337  -0.539   1.532  0.00  0.00     0.162 A 
ATOM      4  C3  UNL d   1      -1.590  -1.235   0.582  0.00  0.00    -0.034 A 
ATOM      5  C4  UNL d   1      -0.250  -1.524   0.848  0.00  0.00     0.162 A 
ATOM      6  C5  UNL d   1       0.329  -1.123   2.047  0.00  0.00     0.062 A 
ATOM      7  F   UNL d   1       1.617  -1.405   2.295  0.00  0.00    -0.097 F 
ATOM      8  F1  UNL d   1       0.497  -2.191  -0.043  0.00  0.00    -0.096 F 
ATOM      9  I   UNL d   1      -2.460  -1.833  -1.211  0.00  0.00    -0.060 I 
ATOM     10  F2  UNL d   1      -3.627  -0.244   1.310  0.00  0.00    -0.096 F 
ATOM     11  F3  UNL d   1      -2.479   0.529   3.638  0.00  0.00    -0.097 F 
ATOM     12  F4  UNL d   1       0.140  -0.045   4.142  0.00  0.00    -0.092 F 
ENDROOT
TORSDOF 0
ENDMDL
