MODEL 1
REMARK minimizedAffinity 8.60230064
REMARK minimizedRMSD -1
REMARK  0 active torsions:
REMARK  status: ('A' for Active; 'I' for Inactive)
ROOT
ATOM      1  C   UNL d   1      -0.626  -1.479   1.619  0.00  0.00     0.124 A 
ATOM      2  C1  UNL d   1      -0.438  -1.431   2.993  0.00  0.00     0.062 A 
ATOM      3  C2  UNL d   1      -1.443  -0.938   3.821  0.00  0.00     0.162 A 
ATOM      4  C3  UNL d   1      -2.646  -0.490   3.276  0.00  0.00    -0.034 A 
ATOM      5  C4  UNL d   1      -2.828  -0.541   1.893  0.00  0.00     0.162 A 
ATOM      6  C5  UNL d   1      -1.821  -1.034   1.070  0.00  0.00     0.062 A 
ATOM      7  F   UNL d   1      -2.005  -1.080  -0.257  0.00  0.00    -0.097 F 
ATOM      8  F1  UNL d   1      -3.973  -0.118   1.336  0.00  0.00    -0.096 F 
ATOM      9  I   UNL d   1      -4.152   0.247   4.510  0.00  0.00    -0.060 I 
ATOM     10  F2  UNL d   1      -1.233  -0.903   5.145  0.00  0.00    -0.096 F 
ATOM     11  F3  UNL d   1       0.716  -1.859   3.525  0.00  0.00    -0.097 F 
ATOM     12  F4  UNL d   1       0.342  -1.952   0.825  0.00  0.00    -0.092 F 
ENDROOT
TORSDOF 0
ENDMDL
