MODEL 1
REMARK minimizedAffinity 1.89197481
REMARK minimizedRMSD -1
REMARK  0 active torsions:
REMARK  status: ('A' for Active; 'I' for Inactive)
ROOT
ATOM      1  C   UNL d   1      -3.117   3.990  -3.639  0.00  0.00     0.124 A 
ATOM      2  C1  UNL d   1      -3.671   2.730  -3.463  0.00  0.00     0.062 A 
ATOM      3  C2  UNL d   1      -2.893   1.686  -2.972  0.00  0.00     0.162 A 
ATOM      4  C3  UNL d   1      -1.552   1.898  -2.651  0.00  0.00    -0.034 A 
ATOM      5  C4  UNL d   1      -1.002   3.168  -2.832  0.00  0.00     0.162 A 
ATOM      6  C5  UNL d   1      -1.784   4.208  -3.323  0.00  0.00     0.062 A 
ATOM      7  F   UNL d   1      -1.247   5.426  -3.492  0.00  0.00    -0.097 F 
ATOM      8  F1  UNL d   1       0.284   3.407  -2.533  0.00  0.00    -0.096 F 
ATOM      9  I   UNL d   1      -0.385   0.339  -1.916  0.00  0.00    -0.060 I 
ATOM     10  F2  UNL d   1      -3.454   0.478  -2.812  0.00  0.00    -0.096 F 
ATOM     11  F3  UNL d   1      -4.959   2.516  -3.769  0.00  0.00    -0.097 F 
ATOM     12  F4  UNL d   1      -3.868   4.993  -4.113  0.00  0.00    -0.092 F 
ENDROOT
TORSDOF 0
ENDMDL
