MODEL 1
REMARK minimizedAffinity -2.91840982
REMARK minimizedRMSD -1
REMARK  2 active torsions:
REMARK  status: ('A' for Active; 'I' for Inactive)
REMARK    1  A    between atoms: C1_2  and  C2_3 
REMARK    2  A    between atoms: C2_3  and  C3_4 
ROOT
ATOM      1  C3  UNL d   1       1.041   0.056   0.985  0.00  0.00    -0.075 A 
ATOM      2  C4  UNL d   1      -0.181  -0.118   0.320  0.00  0.00     0.002 A 
ATOM      3  C5  UNL d   1      -0.781   0.948  -0.350  0.00  0.00     0.002 A 
ATOM      4  C6  UNL d   1      -0.173   2.202  -0.356  0.00  0.00    -0.004 A 
ATOM      5  C7  UNL d   1       1.033   2.390   0.315  0.00  0.00     0.002 A 
ATOM      6  C8  UNL d   1       1.637   1.324   0.983  0.00  0.00     0.002 A 
ENDROOT
BRANCH   1   7
ATOM      7  C2  UNL d   1       1.710  -1.101   1.688  0.00  0.00     0.056 C 
BRANCH   7   8
ATOM      8  C1  UNL d   1       2.763  -1.821   0.840  0.00  0.00     0.007 C 
ATOM      9  C   UNL d   1       2.354  -1.979  -0.619  0.00  0.00     0.009 C 
ENDBRANCH   7   8
ENDBRANCH   1   7
TORSDOF 2
ENDMDL
