MODEL 1
REMARK minimizedAffinity -5.27673531
REMARK minimizedRMSD -1
REMARK  2 active torsions:
REMARK  status: ('A' for Active; 'I' for Inactive)
REMARK    1  A    between atoms: C1_2  and  C2_3 
REMARK    2  A    between atoms: C2_3  and  C3_4 
ROOT
ATOM      1  C3  UNL d   1       0.741   0.364  -0.014  0.00  0.00    -0.075 A 
ATOM      2  C4  UNL d   1       0.576  -1.027  -0.092  0.00  0.00     0.002 A 
ATOM      3  C5  UNL d   1       1.598  -1.885   0.313  0.00  0.00     0.002 A 
ATOM      4  C6  UNL d   1       2.800  -1.366   0.790  0.00  0.00    -0.004 A 
ATOM      5  C7  UNL d   1       2.981   0.014   0.857  0.00  0.00     0.002 A 
ATOM      6  C8  UNL d   1       1.958   0.875   0.456  0.00  0.00     0.002 A 
ENDROOT
BRANCH   1   7
ATOM      7  C2  UNL d   1      -0.373   1.298  -0.424  0.00  0.00     0.056 C 
BRANCH   7   8
ATOM      8  C1  UNL d   1      -1.778   0.746  -0.163  0.00  0.00     0.007 C 
ATOM      9  C   UNL d   1      -2.470   1.401   1.025  0.00  0.00     0.009 C 
ENDBRANCH   7   8
ENDBRANCH   1   7
TORSDOF 2
ENDMDL
