MODEL 1
REMARK minimizedAffinity -4.02676344
REMARK minimizedRMSD -1
REMARK  2 active torsions:
REMARK  status: ('A' for Active; 'I' for Inactive)
REMARK    1  A    between atoms: C1_2  and  C2_3 
REMARK    2  A    between atoms: C2_3  and  C3_4 
ROOT
ATOM      1  C3  UNL d   1      -2.162  -0.312   0.336  0.00  0.00    -0.075 A 
ATOM      2  C4  UNL d   1      -1.495  -1.464   0.779  0.00  0.00     0.002 A 
ATOM      3  C5  UNL d   1      -0.213  -1.762   0.318  0.00  0.00     0.002 A 
ATOM      4  C6  UNL d   1       0.415  -0.919  -0.597  0.00  0.00    -0.004 A 
ATOM      5  C7  UNL d   1      -0.244   0.219  -1.056  0.00  0.00     0.002 A 
ATOM      6  C8  UNL d   1      -1.526   0.522  -0.593  0.00  0.00     0.002 A 
ENDROOT
BRANCH   1   7
ATOM      7  C2  UNL d   1      -3.538   0.031   0.853  0.00  0.00     0.056 C 
BRANCH   7   8
ATOM      8  C1  UNL d   1      -3.541   0.651   2.255  0.00  0.00     0.007 C 
ATOM      9  C   UNL d   1      -3.550   2.174   2.237  0.00  0.00     0.009 C 
ENDBRANCH   7   8
ENDBRANCH   1   7
TORSDOF 2
ENDMDL
