MODEL 1
REMARK minimizedAffinity -5.89824724
REMARK minimizedRMSD -1
REMARK  2 active torsions:
REMARK  status: ('A' for Active; 'I' for Inactive)
REMARK    1  A    between atoms: C1_2  and  C2_3 
REMARK    2  A    between atoms: C2_3  and  C3_4 
ROOT
ATOM      1  C3  UNL d   1      -0.035  -0.047  -0.045  0.00  0.00    -0.075 A 
ATOM      2  C4  UNL d   1       1.199  -0.013   0.621  0.00  0.00     0.002 A 
ATOM      3  C5  UNL d   1       2.116  -1.053   0.467  0.00  0.00     0.002 A 
ATOM      4  C6  UNL d   1       1.809  -2.143  -0.344  0.00  0.00    -0.004 A 
ATOM      5  C7  UNL d   1       0.579  -2.195  -0.997  0.00  0.00     0.002 A 
ATOM      6  C8  UNL d   1      -0.339  -1.154  -0.849  0.00  0.00     0.002 A 
ENDROOT
BRANCH   1   7
ATOM      7  C2  UNL d   1      -1.019   1.089   0.093  0.00  0.00     0.056 C 
BRANCH   7   8
ATOM      8  C1  UNL d   1      -2.483   0.672  -0.090  0.00  0.00     0.007 C 
ATOM      9  C   UNL d   1      -3.363   1.035   1.098  0.00  0.00     0.009 C 
ENDBRANCH   7   8
ENDBRANCH   1   7
TORSDOF 2
ENDMDL
