MODEL 1
REMARK minimizedAffinity -1.53584504
REMARK minimizedRMSD -1
REMARK  2 active torsions:
REMARK  status: ('A' for Active; 'I' for Inactive)
REMARK    1  A    between atoms: C1_2  and  C2_3 
REMARK    2  A    between atoms: C2_3  and  C3_4 
ROOT
ATOM      1  C3  UNL d   1      -2.144   0.641   0.715  0.00  0.00    -0.075 A 
ATOM      2  C4  UNL d   1      -1.361   1.176  -0.319  0.00  0.00     0.002 A 
ATOM      3  C5  UNL d   1      -0.047   0.747  -0.506  0.00  0.00     0.002 A 
ATOM      4  C6  UNL d   1       0.504  -0.212   0.341  0.00  0.00    -0.004 A 
ATOM      5  C7  UNL d   1      -0.259  -0.738   1.381  0.00  0.00     0.002 A 
ATOM      6  C8  UNL d   1      -1.576  -0.314   1.569  0.00  0.00     0.002 A 
ENDROOT
BRANCH   1   7
ATOM      7  C2  UNL d   1      -3.576   1.079   0.905  0.00  0.00     0.056 C 
BRANCH   7   8
ATOM      8  C1  UNL d   1      -4.610   0.062   0.411  0.00  0.00     0.007 C 
ATOM      9  C   UNL d   1      -5.324   0.501  -0.861  0.00  0.00     0.009 C 
ENDBRANCH   7   8
ENDBRANCH   1   7
TORSDOF 2
ENDMDL
