MODEL 1
REMARK minimizedAffinity -2.65638161
REMARK minimizedRMSD -1
REMARK  2 active torsions:
REMARK  status: ('A' for Active; 'I' for Inactive)
REMARK    1  A    between atoms: C1_2  and  C2_3 
REMARK    2  A    between atoms: C2_3  and  C3_4 
ROOT
ATOM      1  C3  UNL d   1       1.157   0.082   0.029  0.00  0.00    -0.075 A 
ATOM      2  C4  UNL d   1      -0.112  -0.488  -0.148  0.00  0.00     0.002 A 
ATOM      3  C5  UNL d   1      -1.259   0.304  -0.091  0.00  0.00     0.002 A 
ATOM      4  C6  UNL d   1      -1.154   1.671   0.154  0.00  0.00    -0.004 A 
ATOM      5  C7  UNL d   1       0.101   2.246   0.347  0.00  0.00     0.002 A 
ATOM      6  C8  UNL d   1       1.250   1.456   0.286  0.00  0.00     0.002 A 
ENDROOT
BRANCH   1   7
ATOM      7  C2  UNL d   1       2.404  -0.765  -0.061  0.00  0.00     0.056 C 
BRANCH   7   8
ATOM      8  C1  UNL d   1       2.448  -1.681  -1.288  0.00  0.00     0.007 C 
ATOM      9  C   UNL d   1       3.711  -1.508  -2.121  0.00  0.00     0.009 C 
ENDBRANCH   7   8
ENDBRANCH   1   7
TORSDOF 2
ENDMDL
