MODEL 1
REMARK minimizedAffinity 12.6440334
REMARK minimizedRMSD -1
REMARK  0 active torsions:
REMARK  status: ('A' for Active; 'I' for Inactive)
ROOT
ATOM      1  C   UNL d   1       6.000  -5.980  -4.409  0.00  0.00    -0.002 A 
ATOM      2  C1  UNL d   1       5.999  -5.857  -3.026  0.00  0.00     0.010 A 
ATOM      3  C2  UNL d   1       5.820  -4.610  -2.425  0.00  0.00     0.041 A 
ATOM      4  C3  UNL d   1       5.639  -3.478  -3.244  0.00  0.00    -0.075 A 
ATOM      5  S   UNL d   1       5.401  -1.849  -2.729  0.00  0.00     0.015 SA
ATOM      6  C4  UNL d   1       5.294  -1.279  -4.331  0.00  0.00     0.022 A 
ATOM      7  C5  UNL d   1       5.435  -2.293  -5.249  0.00  0.00     0.026 A 
ATOM      8  C6  UNL d   1       5.635  -3.577  -4.638  0.00  0.00    -0.082 A 
ATOM      9  C7  UNL d   1       5.820  -4.855  -5.218  0.00  0.00     0.045 A 
ENDROOT
TORSDOF 0
ENDMDL
