MODEL 1
REMARK minimizedAffinity 7.74867821
REMARK minimizedRMSD -1
REMARK  0 active torsions:
REMARK  status: ('A' for Active; 'I' for Inactive)
ROOT
ATOM      1  C   UNL d   1       4.878  -1.468  -2.441  0.00  0.00    -0.002 A 
ATOM      2  C1  UNL d   1       6.000  -2.265  -2.618  0.00  0.00     0.010 A 
ATOM      3  C2  UNL d   1       6.000  -3.291  -3.565  0.00  0.00     0.041 A 
ATOM      4  C3  UNL d   1       4.842  -3.504  -4.339  0.00  0.00    -0.075 A 
ATOM      5  S   UNL d   1       4.613  -4.701  -5.558  0.00  0.00     0.015 SA
ATOM      6  C4  UNL d   1       3.021  -4.183  -5.874  0.00  0.00     0.022 A 
ATOM      7  C5  UNL d   1       2.656  -3.123  -5.077  0.00  0.00     0.026 A 
ATOM      8  C6  UNL d   1       3.700  -2.714  -4.180  0.00  0.00    -0.082 A 
ATOM      9  C7  UNL d   1       3.732  -1.682  -3.211  0.00  0.00     0.045 A 
ENDROOT
TORSDOF 0
ENDMDL
