MODEL 1
REMARK minimizedAffinity 10.8571796
REMARK minimizedRMSD -1
REMARK  0 active torsions:
REMARK  status: ('A' for Active; 'I' for Inactive)
ROOT
ATOM      1  C   UNL d   1       0.764   2.684  -0.886  0.00  0.00    -0.002 A 
ATOM      2  C1  UNL d   1      -0.368   1.885  -0.965  0.00  0.00     0.010 A 
ATOM      3  C2  UNL d   1      -1.560   2.392  -1.486  0.00  0.00     0.041 A 
ATOM      4  C3  UNL d   1      -1.595   3.728  -1.933  0.00  0.00    -0.075 A 
ATOM      5  S   UNL d   1      -2.943   4.563  -2.609  0.00  0.00     0.015 SA
ATOM      6  C4  UNL d   1      -2.047   5.999  -2.810  0.00  0.00     0.022 A 
ATOM      7  C5  UNL d   1      -0.750   5.863  -2.377  0.00  0.00     0.026 A 
ATOM      8  C6  UNL d   1      -0.467   4.551  -1.864  0.00  0.00    -0.082 A 
ATOM      9  C7  UNL d   1       0.726   4.008  -1.330  0.00  0.00     0.045 A 
ENDROOT
TORSDOF 0
ENDMDL
