MODEL 1
REMARK minimizedAffinity 4.56685686
REMARK minimizedRMSD -1
REMARK  0 active torsions:
REMARK  status: ('A' for Active; 'I' for Inactive)
ROOT
ATOM      1  C   UNL d   1       0.924   4.071  -2.075  0.00  0.00    -0.002 A 
ATOM      2  C1  UNL d   1       1.875   4.651  -1.248  0.00  0.00     0.010 A 
ATOM      3  C2  UNL d   1       2.080   4.169   0.046  0.00  0.00     0.041 A 
ATOM      4  C3  UNL d   1       1.306   3.081   0.498  0.00  0.00    -0.075 A 
ATOM      5  S   UNL d   1       1.384   2.322   2.044  0.00  0.00     0.015 SA
ATOM      6  C4  UNL d   1       0.157   1.209   1.642  0.00  0.00     0.022 A 
ATOM      7  C5  UNL d   1      -0.312   1.398   0.363  0.00  0.00     0.026 A 
ATOM      8  C6  UNL d   1       0.343   2.480  -0.317  0.00  0.00    -0.082 A 
ATOM      9  C7  UNL d   1       0.159   2.993  -1.624  0.00  0.00     0.045 A 
ENDROOT
TORSDOF 0
ENDMDL
