MODEL 1
REMARK minimizedAffinity 2.87798667
REMARK minimizedRMSD -1
REMARK  0 active torsions:
REMARK  status: ('A' for Active; 'I' for Inactive)
ROOT
ATOM      1  C   UNL d   1       0.050   1.929   1.146  0.00  0.00    -0.002 A 
ATOM      2  C1  UNL d   1      -0.334   1.472  -0.107  0.00  0.00     0.010 A 
ATOM      3  C2  UNL d   1      -0.275   2.315  -1.219  0.00  0.00     0.041 A 
ATOM      4  C3  UNL d   1       0.182   3.637  -1.048  0.00  0.00    -0.075 A 
ATOM      5  S   UNL d   1       0.340   4.848  -2.266  0.00  0.00     0.015 SA
ATOM      6  C4  UNL d   1       0.921   5.999  -1.151  0.00  0.00     0.022 A 
ATOM      7  C5  UNL d   1       0.998   5.489   0.123  0.00  0.00     0.026 A 
ATOM      8  C6  UNL d   1       0.575   4.119   0.204  0.00  0.00    -0.082 A 
ATOM      9  C7  UNL d   1       0.502   3.241   1.311  0.00  0.00     0.045 A 
ENDROOT
TORSDOF 0
ENDMDL
