MODEL 1
REMARK minimizedAffinity 10.5301895
REMARK minimizedRMSD -1
REMARK  0 active torsions:
REMARK  status: ('A' for Active; 'I' for Inactive)
ROOT
ATOM      1  C   UNL d   1       0.955  -4.434  -0.430  0.00  0.00    -0.002 A 
ATOM      2  C1  UNL d   1       1.666  -3.433   0.217  0.00  0.00     0.010 A 
ATOM      3  C2  UNL d   1       2.979  -3.139  -0.157  0.00  0.00     0.041 A 
ATOM      4  C3  UNL d   1       3.570  -3.873  -1.204  0.00  0.00    -0.075 A 
ATOM      5  S   UNL d   1       5.165  -3.687  -1.832  0.00  0.00     0.015 SA
ATOM      6  C4  UNL d   1       4.940  -4.931  -2.975  0.00  0.00     0.022 A 
ATOM      7  C5  UNL d   1       3.685  -5.486  -2.893  0.00  0.00     0.026 A 
ATOM      8  C6  UNL d   1       2.875  -4.886  -1.871  0.00  0.00    -0.082 A 
ATOM      9  C7  UNL d   1       1.546  -5.161  -1.468  0.00  0.00     0.045 A 
ENDROOT
TORSDOF 0
ENDMDL
