MODEL 1
REMARK minimizedAffinity 7.93489695
REMARK minimizedRMSD -1
REMARK  0 active torsions:
REMARK  status: ('A' for Active; 'I' for Inactive)
ROOT
ATOM      1  C   UNL d   1       0.945  -5.107  -0.408  0.00  0.00    -0.002 A 
ATOM      2  C1  UNL d   1       1.651  -4.218   0.391  0.00  0.00     0.010 A 
ATOM      3  C2  UNL d   1       2.918  -3.772   0.009  0.00  0.00     0.041 A 
ATOM      4  C3  UNL d   1       3.468  -4.238  -1.202  0.00  0.00    -0.075 A 
ATOM      5  S   UNL d   1       5.002  -3.827  -1.872  0.00  0.00     0.015 SA
ATOM      6  C4  UNL d   1       4.757  -4.821  -3.234  0.00  0.00     0.022 A 
ATOM      7  C5  UNL d   1       3.539  -5.458  -3.195  0.00  0.00     0.026 A 
ATOM      8  C6  UNL d   1       2.776  -5.132  -2.023  0.00  0.00    -0.082 A 
ATOM      9  C7  UNL d   1       1.494  -5.567  -1.608  0.00  0.00     0.045 A 
ENDROOT
TORSDOF 0
ENDMDL
