MODEL 1
REMARK minimizedAffinity 5.80846357
REMARK minimizedRMSD -1
REMARK  0 active torsions:
REMARK  status: ('A' for Active; 'I' for Inactive)
ROOT
ATOM      1  C   UNL d   1       0.424   4.672  -0.180  0.00  0.00    -0.002 A 
ATOM      2  C1  UNL d   1       0.141   3.732  -1.161  0.00  0.00     0.010 A 
ATOM      3  C2  UNL d   1       0.004   2.382  -0.833  0.00  0.00     0.041 A 
ATOM      4  C3  UNL d   1       0.156   1.989   0.512  0.00  0.00    -0.075 A 
ATOM      5  S   UNL d   1       0.031   0.392   1.148  0.00  0.00     0.015 SA
ATOM      6  C4  UNL d   1       0.349   0.920   2.737  0.00  0.00     0.022 A 
ATOM      7  C5  UNL d   1       0.548   2.279   2.799  0.00  0.00     0.026 A 
ATOM      8  C6  UNL d   1       0.440   2.917   1.517  0.00  0.00    -0.082 A 
ATOM      9  C7  UNL d   1       0.573   4.279   1.152  0.00  0.00     0.045 A 
ENDROOT
TORSDOF 0
ENDMDL
