MODEL 1
REMARK minimizedAffinity 8.92529774
REMARK minimizedRMSD -1
REMARK  2 active torsions:
REMARK  status: ('A' for Active; 'I' for Inactive)
REMARK    1  A    between atoms: C1_2  and  C2_3 
REMARK    2  A    between atoms: C2_3  and  C3_4 
ROOT
ATOM      1  C3  UNL d   1       1.797   2.196  -0.078  0.00  0.00    -0.075 A 
ATOM      2  C4  UNL d   1       1.054   3.212   0.541  0.00  0.00     0.002 A 
ATOM      3  C5  UNL d   1       0.388   2.971   1.742  0.00  0.00     0.002 A 
ATOM      4  C6  UNL d   1       0.446   1.711   2.334  0.00  0.00    -0.004 A 
ATOM      5  C7  UNL d   1       1.167   0.689   1.719  0.00  0.00     0.002 A 
ATOM      6  C8  UNL d   1       1.839   0.929   0.519  0.00  0.00     0.002 A 
ENDROOT
BRANCH   1   7
ATOM      7  C2  UNL d   1       2.545   2.459  -1.363  0.00  0.00     0.056 C 
BRANCH   7   8
ATOM      8  C1  UNL d   1       2.046   1.635  -2.555  0.00  0.00     0.007 C 
ATOM      9  C   UNL d   1       0.998   2.361  -3.389  0.00  0.00     0.009 C 
ENDBRANCH   7   8
ENDBRANCH   1   7
TORSDOF 2
ENDMDL
