MODEL 1
REMARK minimizedAffinity 13.6529942
REMARK minimizedRMSD -1
REMARK  2 active torsions:
REMARK  status: ('A' for Active; 'I' for Inactive)
REMARK    1  A    between atoms: C1_2  and  C2_3 
REMARK    2  A    between atoms: C2_3  and  C3_4 
ROOT
ATOM      1  C3  UNL d   1      -1.140  -1.265   3.891  0.00  0.00    -0.075 A 
ATOM      2  C4  UNL d   1      -0.006  -1.135   3.076  0.00  0.00     0.002 A 
ATOM      3  C5  UNL d   1       0.850  -0.043   3.222  0.00  0.00     0.002 A 
ATOM      4  C6  UNL d   1       0.578   0.936   4.175  0.00  0.00    -0.004 A 
ATOM      5  C7  UNL d   1      -0.554   0.826   4.978  0.00  0.00     0.002 A 
ATOM      6  C8  UNL d   1      -1.410  -0.268   4.837  0.00  0.00     0.002 A 
ENDROOT
BRANCH   1   7
ATOM      7  C2  UNL d   1      -2.054  -2.459   3.758  0.00  0.00     0.056 C 
BRANCH   7   8
ATOM      8  C1  UNL d   1      -1.394  -3.793   4.122  0.00  0.00     0.007 C 
ATOM      9  C   UNL d   1      -2.338  -4.756   4.830  0.00  0.00     0.009 C 
ENDBRANCH   7   8
ENDBRANCH   1   7
TORSDOF 2
ENDMDL
