MODEL 1
REMARK minimizedAffinity 13.6241179
REMARK minimizedRMSD -1
REMARK  2 active torsions:
REMARK  status: ('A' for Active; 'I' for Inactive)
REMARK    1  A    between atoms: C1_2  and  C2_3 
REMARK    2  A    between atoms: C2_3  and  C3_4 
ROOT
ATOM      1  C3  UNL d   1      -0.576   3.205   1.203  0.00  0.00    -0.075 A 
ATOM      2  C4  UNL d   1       0.695   2.837   0.739  0.00  0.00     0.002 A 
ATOM      3  C5  UNL d   1       1.404   1.808   1.359  0.00  0.00     0.002 A 
ATOM      4  C6  UNL d   1       0.858   1.142   2.454  0.00  0.00    -0.004 A 
ATOM      5  C7  UNL d   1      -0.398   1.511   2.933  0.00  0.00     0.002 A 
ATOM      6  C8  UNL d   1      -1.111   2.537   2.312  0.00  0.00     0.002 A 
ENDROOT
BRANCH   1   7
ATOM      7  C2  UNL d   1      -1.361   4.298   0.518  0.00  0.00     0.056 C 
BRANCH   7   8
ATOM      8  C1  UNL d   1      -2.248   3.804  -0.630  0.00  0.00     0.007 C 
ATOM      9  C   UNL d   1      -3.166   4.883  -1.188  0.00  0.00     0.009 C 
ENDBRANCH   7   8
ENDBRANCH   1   7
TORSDOF 2
ENDMDL
