MODEL 1
REMARK minimizedAffinity 15.7101145
REMARK minimizedRMSD -1
REMARK  2 active torsions:
REMARK  status: ('A' for Active; 'I' for Inactive)
REMARK    1  A    between atoms: C1_2  and  C2_3 
REMARK    2  A    between atoms: C2_3  and  C3_4 
ROOT
ATOM      1  C3  UNL d   1      -1.788  -3.109   3.720  0.00  0.00    -0.075 A 
ATOM      2  C4  UNL d   1      -3.028  -3.302   4.346  0.00  0.00     0.002 A 
ATOM      3  C5  UNL d   1      -3.331  -4.520   4.957  0.00  0.00     0.002 A 
ATOM      4  C6  UNL d   1      -2.404  -5.560   4.941  0.00  0.00    -0.004 A 
ATOM      5  C7  UNL d   1      -1.176  -5.384   4.308  0.00  0.00     0.002 A 
ATOM      6  C8  UNL d   1      -0.868  -4.165   3.700  0.00  0.00     0.002 A 
ENDROOT
BRANCH   1   7
ATOM      7  C2  UNL d   1      -1.443  -1.784   3.083  0.00  0.00     0.056 C 
BRANCH   7   8
ATOM      8  C1  UNL d   1      -0.856  -0.757   4.057  0.00  0.00     0.007 C 
ATOM      9  C   UNL d   1       0.568  -0.346   3.710  0.00  0.00     0.009 C 
ENDBRANCH   7   8
ENDBRANCH   1   7
TORSDOF 2
ENDMDL
