MODEL 1
REMARK minimizedAffinity 22.2518921
REMARK minimizedRMSD -1
REMARK  2 active torsions:
REMARK  status: ('A' for Active; 'I' for Inactive)
REMARK    1  A    between atoms: C1_2  and  C2_3 
REMARK    2  A    between atoms: C2_3  and  C3_4 
ROOT
ATOM      1  C3  UNL d   1       4.774   2.250  -3.198  0.00  0.00    -0.075 A 
ATOM      2  C4  UNL d   1       5.387   1.849  -4.394  0.00  0.00     0.002 A 
ATOM      3  C5  UNL d   1       6.000   2.788  -5.224  0.00  0.00     0.002 A 
ATOM      4  C6  UNL d   1       6.000   4.136  -4.876  0.00  0.00    -0.004 A 
ATOM      5  C7  UNL d   1       5.379   4.548  -3.698  0.00  0.00     0.002 A 
ATOM      6  C8  UNL d   1       4.769   3.610  -2.863  0.00  0.00     0.002 A 
ENDROOT
BRANCH   1   7
ATOM      7  C2  UNL d   1       4.134   1.235  -2.280  0.00  0.00     0.056 C 
BRANCH   7   8
ATOM      8  C1  UNL d   1       2.604   1.204  -2.355  0.00  0.00     0.007 C 
ATOM      9  C   UNL d   1       1.932   1.474  -1.015  0.00  0.00     0.009 C 
ENDBRANCH   7   8
ENDBRANCH   1   7
TORSDOF 2
ENDMDL
