MODEL 1
REMARK minimizedAffinity 3.21230769
REMARK minimizedRMSD -1
REMARK  2 active torsions:
REMARK  status: ('A' for Active; 'I' for Inactive)
REMARK    1  A    between atoms: C1_2  and  C2_3 
REMARK    2  A    between atoms: C2_3  and  C3_4 
ROOT
ATOM      1  C3  UNL d   1       2.353   1.192   0.121  0.00  0.00    -0.075 A 
ATOM      2  C4  UNL d   1       2.195   2.067  -0.964  0.00  0.00     0.002 A 
ATOM      3  C5  UNL d   1       2.949   1.898  -2.126  0.00  0.00     0.002 A 
ATOM      4  C6  UNL d   1       3.875   0.861  -2.214  0.00  0.00    -0.004 A 
ATOM      5  C7  UNL d   1       4.052  -0.004  -1.137  0.00  0.00     0.002 A 
ATOM      6  C8  UNL d   1       3.296   0.160   0.025  0.00  0.00     0.002 A 
ENDROOT
BRANCH   1   7
ATOM      7  C2  UNL d   1       1.519   1.351   1.370  0.00  0.00     0.056 C 
BRANCH   7   8
ATOM      8  C1  UNL d   1       0.985   0.031   1.935  0.00  0.00     0.007 C 
ATOM      9  C   UNL d   1       0.704   0.089   3.431  0.00  0.00     0.009 C 
ENDBRANCH   7   8
ENDBRANCH   1   7
TORSDOF 2
ENDMDL
