MODEL 1
REMARK minimizedAffinity 17.9275169
REMARK minimizedRMSD -1
REMARK  2 active torsions:
REMARK  status: ('A' for Active; 'I' for Inactive)
REMARK    1  A    between atoms: C1_2  and  C2_3 
REMARK    2  A    between atoms: C2_3  and  C3_4 
ROOT
ATOM      1  C3  UNL d   1      -3.228  -4.137  -3.793  0.00  0.00    -0.075 A 
ATOM      2  C4  UNL d   1      -1.890  -4.556  -3.817  0.00  0.00     0.002 A 
ATOM      3  C5  UNL d   1      -1.074  -4.259  -4.909  0.00  0.00     0.002 A 
ATOM      4  C6  UNL d   1      -1.587  -3.551  -5.994  0.00  0.00    -0.004 A 
ATOM      5  C7  UNL d   1      -2.920  -3.144  -5.988  0.00  0.00     0.002 A 
ATOM      6  C8  UNL d   1      -3.737  -3.436  -4.894  0.00  0.00     0.002 A 
ENDROOT
BRANCH   1   7
ATOM      7  C2  UNL d   1      -4.108  -4.429  -2.601  0.00  0.00     0.056 C 
BRANCH   7   8
ATOM      8  C1  UNL d   1      -5.546  -3.921  -2.748  0.00  0.00     0.007 C 
ATOM      9  C   UNL d   1      -5.990  -3.034  -1.593  0.00  0.00     0.009 C 
ENDBRANCH   7   8
ENDBRANCH   1   7
TORSDOF 2
ENDMDL
