MODEL 1
REMARK minimizedAffinity 13.2617159
REMARK minimizedRMSD -1
REMARK  2 active torsions:
REMARK  status: ('A' for Active; 'I' for Inactive)
REMARK    1  A    between atoms: C1_2  and  C2_3 
REMARK    2  A    between atoms: C2_3  and  C3_4 
ROOT
ATOM      1  C3  UNL d   1       3.862  -0.490  -5.174  0.00  0.00    -0.075 A 
ATOM      2  C4  UNL d   1       3.428   0.054  -3.957  0.00  0.00     0.002 A 
ATOM      3  C5  UNL d   1       4.268   0.882  -3.212  0.00  0.00     0.002 A 
ATOM      4  C6  UNL d   1       5.552   1.169  -3.668  0.00  0.00    -0.004 A 
ATOM      5  C7  UNL d   1       6.000   0.621  -4.868  0.00  0.00     0.002 A 
ATOM      6  C8  UNL d   1       5.161  -0.204  -5.618  0.00  0.00     0.002 A 
ENDROOT
BRANCH   1   7
ATOM      7  C2  UNL d   1       2.948  -1.363  -6.000  0.00  0.00     0.056 C 
BRANCH   7   8
ATOM      8  C1  UNL d   1       3.256  -2.861  -5.897  0.00  0.00     0.007 C 
ATOM      9  C   UNL d   1       4.745  -3.174  -5.964  0.00  0.00     0.009 C 
ENDBRANCH   7   8
ENDBRANCH   1   7
TORSDOF 2
ENDMDL
