MODEL 1
REMARK minimizedAffinity 20.9786072
REMARK minimizedRMSD -1
REMARK  2 active torsions:
REMARK  status: ('A' for Active; 'I' for Inactive)
REMARK    1  A    between atoms: C1_2  and  C2_3 
REMARK    2  A    between atoms: C2_3  and  C3_4 
ROOT
ATOM      1  C3  UNL d   1       0.018  -0.074   2.467  0.00  0.00    -0.075 A 
ATOM      2  C4  UNL d   1       0.310   1.058   1.692  0.00  0.00     0.002 A 
ATOM      3  C5  UNL d   1       1.563   1.667   1.773  0.00  0.00     0.002 A 
ATOM      4  C6  UNL d   1       2.533   1.160   2.634  0.00  0.00    -0.004 A 
ATOM      5  C7  UNL d   1       2.248   0.046   3.421  0.00  0.00     0.002 A 
ATOM      6  C8  UNL d   1       0.997  -0.568   3.339  0.00  0.00     0.002 A 
ENDROOT
BRANCH   1   7
ATOM      7  C2  UNL d   1      -1.326  -0.755   2.362  0.00  0.00     0.056 C 
BRANCH   7   8
ATOM      8  C1  UNL d   1      -1.417  -2.076   3.134  0.00  0.00     0.007 C 
ATOM      9  C   UNL d   1      -2.757  -2.272   3.831  0.00  0.00     0.009 C 
ENDBRANCH   7   8
ENDBRANCH   1   7
TORSDOF 2
ENDMDL
