MODEL 1
REMARK minimizedAffinity 11.7552948
REMARK minimizedRMSD -1
REMARK  2 active torsions:
REMARK  status: ('A' for Active; 'I' for Inactive)
REMARK    1  A    between atoms: C1_2  and  C2_3 
REMARK    2  A    between atoms: C2_3  and  C3_4 
ROOT
ATOM      1  C3  UNL d   1       0.084   0.186   3.374  0.00  0.00    -0.075 A 
ATOM      2  C4  UNL d   1      -0.248   1.279   2.561  0.00  0.00     0.002 A 
ATOM      3  C5  UNL d   1       0.750   2.108   2.047  0.00  0.00     0.002 A 
ATOM      4  C6  UNL d   1       2.088   1.861   2.347  0.00  0.00    -0.004 A 
ATOM      5  C7  UNL d   1       2.427   0.787   3.167  0.00  0.00     0.002 A 
ATOM      6  C8  UNL d   1       1.431  -0.046   3.679  0.00  0.00     0.002 A 
ENDROOT
BRANCH   1   7
ATOM      7  C2  UNL d   1      -0.989  -0.732   3.909  0.00  0.00     0.056 C 
BRANCH   7   8
ATOM      8  C1  UNL d   1      -1.587  -1.673   2.857  0.00  0.00     0.007 C 
ATOM      9  C   UNL d   1      -1.635  -3.126   3.310  0.00  0.00     0.009 C 
ENDBRANCH   7   8
ENDBRANCH   1   7
TORSDOF 2
ENDMDL
