MODEL 1
REMARK minimizedAffinity -1.36425805
REMARK minimizedRMSD -1
REMARK  2 active torsions:
REMARK  status: ('A' for Active; 'I' for Inactive)
REMARK    1  A    between atoms: C1_2  and  C2_3 
REMARK    2  A    between atoms: C2_3  and  C3_4 
ROOT
ATOM      1  C3  UNL d   1       4.252   2.202  -5.975  0.00  0.00    -0.075 A 
ATOM      2  C4  UNL d   1       3.279   3.212  -5.971  0.00  0.00     0.002 A 
ATOM      3  C5  UNL d   1       3.652   4.556  -5.980  0.00  0.00     0.002 A 
ATOM      4  C6  UNL d   1       5.000   4.908  -5.983  0.00  0.00    -0.004 A 
ATOM      5  C7  UNL d   1       5.976   3.913  -5.970  0.00  0.00     0.002 A 
ATOM      6  C8  UNL d   1       5.605   2.567  -5.966  0.00  0.00     0.002 A 
ENDROOT
BRANCH   1   7
ATOM      7  C2  UNL d   1       3.855   0.746  -5.995  0.00  0.00     0.056 C 
BRANCH   7   8
ATOM      8  C1  UNL d   1       4.532  -0.101  -4.913  0.00  0.00     0.007 C 
ATOM      9  C   UNL d   1       4.214   0.366  -3.499  0.00  0.00     0.009 C 
ENDBRANCH   7   8
ENDBRANCH   1   7
TORSDOF 2
ENDMDL
