MODEL 1
REMARK minimizedAffinity 3.77427363
REMARK minimizedRMSD -1
REMARK  2 active torsions:
REMARK  status: ('A' for Active; 'I' for Inactive)
REMARK    1  A    between atoms: C1_2  and  C2_3 
REMARK    2  A    between atoms: C2_3  and  C3_4 
ROOT
ATOM      1  C3  UNL d   1      -0.012  -3.559   1.216  0.00  0.00    -0.075 A 
ATOM      2  C4  UNL d   1      -0.440  -4.392   2.259  0.00  0.00     0.002 A 
ATOM      3  C5  UNL d   1      -1.144  -3.866   3.343  0.00  0.00     0.002 A 
ATOM      4  C6  UNL d   1      -1.420  -2.502   3.402  0.00  0.00    -0.004 A 
ATOM      5  C7  UNL d   1      -0.985  -1.662   2.379  0.00  0.00     0.002 A 
ATOM      6  C8  UNL d   1      -0.284  -2.186   1.291  0.00  0.00     0.002 A 
ENDROOT
BRANCH   1   7
ATOM      7  C2  UNL d   1       0.725  -4.127   0.026  0.00  0.00     0.056 C 
BRANCH   7   8
ATOM      8  C1  UNL d   1       0.080  -5.385  -0.565  0.00  0.00     0.007 C 
ATOM      9  C   UNL d   1      -0.430  -5.188  -1.986  0.00  0.00     0.009 C 
ENDBRANCH   7   8
ENDBRANCH   1   7
TORSDOF 2
ENDMDL
