MODEL 1
REMARK minimizedAffinity 2.19837284
REMARK minimizedRMSD -1
REMARK  2 active torsions:
REMARK  status: ('A' for Active; 'I' for Inactive)
REMARK    1  A    between atoms: C1_2  and  C2_3 
REMARK    2  A    between atoms: C2_3  and  C3_4 
ROOT
ATOM      1  C3  UNL d   1      -1.968  -4.258   4.113  0.00  0.00    -0.075 A 
ATOM      2  C4  UNL d   1      -2.663  -3.074   4.398  0.00  0.00     0.002 A 
ATOM      3  C5  UNL d   1      -2.243  -1.858   3.859  0.00  0.00     0.002 A 
ATOM      4  C6  UNL d   1      -1.118  -1.808   3.039  0.00  0.00    -0.004 A 
ATOM      5  C7  UNL d   1      -0.410  -2.975   2.762  0.00  0.00     0.002 A 
ATOM      6  C8  UNL d   1      -0.831  -4.194   3.296  0.00  0.00     0.002 A 
ENDROOT
BRANCH   1   7
ATOM      7  C2  UNL d   1      -2.435  -5.582   4.669  0.00  0.00     0.056 C 
BRANCH   7   8
ATOM      8  C1  UNL d   1      -3.378  -5.456   5.870  0.00  0.00     0.007 C 
ATOM      9  C   UNL d   1      -4.848  -5.407   5.476  0.00  0.00     0.009 C 
ENDBRANCH   7   8
ENDBRANCH   1   7
TORSDOF 2
ENDMDL
