MODEL 1
REMARK minimizedAffinity 9.31202316
REMARK minimizedRMSD -1
REMARK  2 active torsions:
REMARK  status: ('A' for Active; 'I' for Inactive)
REMARK    1  A    between atoms: C1_2  and  C2_3 
REMARK    2  A    between atoms: C2_3  and  C3_4 
ROOT
ATOM      1  C3  UNL d   1       1.428   1.466   2.152  0.00  0.00    -0.075 A 
ATOM      2  C4  UNL d   1       0.037   1.425   2.330  0.00  0.00     0.002 A 
ATOM      3  C5  UNL d   1      -0.763   2.486   1.908  0.00  0.00     0.002 A 
ATOM      4  C6  UNL d   1      -0.184   3.605   1.311  0.00  0.00    -0.004 A 
ATOM      5  C7  UNL d   1       1.198   3.663   1.144  0.00  0.00     0.002 A 
ATOM      6  C8  UNL d   1       2.000   2.601   1.562  0.00  0.00     0.002 A 
ENDROOT
BRANCH   1   7
ATOM      7  C2  UNL d   1       2.296   0.307   2.581  0.00  0.00     0.056 C 
BRANCH   7   8
ATOM      8  C1  UNL d   1       3.049   0.545   3.894  0.00  0.00     0.007 C 
ATOM      9  C   UNL d   1       2.270   1.398   4.887  0.00  0.00     0.009 C 
ENDBRANCH   7   8
ENDBRANCH   1   7
TORSDOF 2
ENDMDL
