MODEL 1
REMARK minimizedAffinity 10.7543783
REMARK minimizedRMSD -1
REMARK  2 active torsions:
REMARK  status: ('A' for Active; 'I' for Inactive)
REMARK    1  A    between atoms: C1_2  and  C2_3 
REMARK    2  A    between atoms: C2_3  and  C3_4 
ROOT
ATOM      1  C3  UNL d   1       1.581   3.233   1.122  0.00  0.00    -0.075 A 
ATOM      2  C4  UNL d   1       0.304   3.812   1.127  0.00  0.00     0.002 A 
ATOM      3  C5  UNL d   1      -0.729   3.244   1.874  0.00  0.00     0.002 A 
ATOM      4  C6  UNL d   1      -0.501   2.086   2.615  0.00  0.00    -0.004 A 
ATOM      5  C7  UNL d   1       0.759   1.493   2.604  0.00  0.00     0.002 A 
ATOM      6  C8  UNL d   1       1.795   2.062   1.861  0.00  0.00     0.002 A 
ENDROOT
BRANCH   1   7
ATOM      7  C2  UNL d   1       2.710   3.860   0.340  0.00  0.00     0.056 C 
BRANCH   7   8
ATOM      8  C1  UNL d   1       3.607   4.783   1.171  0.00  0.00     0.007 C 
ATOM      9  C   UNL d   1       4.098   5.999   0.397  0.00  0.00     0.009 C 
ENDBRANCH   7   8
ENDBRANCH   1   7
TORSDOF 2
ENDMDL
