MODEL 1
REMARK minimizedAffinity 12.6741714
REMARK minimizedRMSD -1
REMARK  2 active torsions:
REMARK  status: ('A' for Active; 'I' for Inactive)
REMARK    1  A    between atoms: C1_2  and  C2_3 
REMARK    2  A    between atoms: C2_3  and  C3_4 
ROOT
ATOM      1  C3  UNL d   1       3.971   1.064  -3.683  0.00  0.00    -0.075 A 
ATOM      2  C4  UNL d   1       5.366   0.927  -3.733  0.00  0.00     0.002 A 
ATOM      3  C5  UNL d   1       5.958   0.034  -4.625  0.00  0.00     0.002 A 
ATOM      4  C6  UNL d   1       5.166  -0.740  -5.470  0.00  0.00    -0.004 A 
ATOM      5  C7  UNL d   1       3.778  -0.624  -5.418  0.00  0.00     0.002 A 
ATOM      6  C8  UNL d   1       3.183   0.273  -4.528  0.00  0.00     0.002 A 
ENDROOT
BRANCH   1   7
ATOM      7  C2  UNL d   1       3.325   2.051  -2.739  0.00  0.00     0.056 C 
BRANCH   7   8
ATOM      8  C1  UNL d   1       1.848   1.763  -2.451  0.00  0.00     0.007 C 
ATOM      9  C   UNL d   1       1.627   1.017  -1.142  0.00  0.00     0.009 C 
ENDBRANCH   7   8
ENDBRANCH   1   7
TORSDOF 2
ENDMDL
