MODEL 1
REMARK minimizedAffinity 2.76038718
REMARK minimizedRMSD -1
REMARK  0 active torsions:
REMARK  status: ('A' for Active; 'I' for Inactive)
ROOT
ATOM      1  C2' OXE d   1       0.881   2.112   1.765  0.00  0.00     0.078 C 
ATOM      2  C1' OXE d   1       3.449   2.934   2.544  0.00  0.00     0.078 C 
ATOM      3  C1  OXE d   1       3.337   2.000   1.365  0.00  0.00    -0.078 A 
ATOM      4  C2  OXE d   1       2.079   1.566   1.020  0.00  0.00    -0.078 A 
ATOM      5  C3  OXE d   1       1.914   0.747  -0.094  0.00  0.00     0.003 A 
ATOM      6  C4  OXE d   1       3.029   0.239  -0.771  0.00  0.00    -0.002 A 
ATOM      7  C5  OXE d   1       4.321   0.636  -0.411  0.00  0.00    -0.002 A 
ATOM      8  C6  OXE d   1       4.489   1.548   0.626  0.00  0.00     0.003 A 
ENDROOT
TORSDOF 0
ENDMDL
