MODEL 1
REMARK minimizedAffinity 20.2522736
REMARK minimizedRMSD -1
REMARK  0 active torsions:
REMARK  status: ('A' for Active; 'I' for Inactive)
ROOT
ATOM      1  C2' OXE d   1      -3.206  -1.196  -2.079  0.00  0.00     0.078 C 
ATOM      2  C1' OXE d   1      -0.786  -0.267  -3.158  0.00  0.00     0.078 C 
ATOM      3  C1  OXE d   1      -2.067   0.170  -3.824  0.00  0.00    -0.078 A 
ATOM      4  C2  OXE d   1      -3.244  -0.327  -3.318  0.00  0.00    -0.078 A 
ATOM      5  C3  OXE d   1      -4.457   0.088  -3.860  0.00  0.00     0.003 A 
ATOM      6  C4  OXE d   1      -4.483   0.884  -5.012  0.00  0.00    -0.002 A 
ATOM      7  C5  OXE d   1      -3.294   1.369  -5.568  0.00  0.00    -0.002 A 
ATOM      8  C6  OXE d   1      -2.082   1.056  -4.962  0.00  0.00     0.003 A 
ENDROOT
TORSDOF 0
ENDMDL
