MODEL 1
REMARK minimizedAffinity 8.01986504
REMARK minimizedRMSD -1
REMARK  0 active torsions:
REMARK  status: ('A' for Active; 'I' for Inactive)
ROOT
ATOM      1  C2' OXE d   1       3.307  -2.217   0.109  0.00  0.00     0.078 C 
ATOM      2  C1' OXE d   1       5.999  -1.838   0.809  0.00  0.00     0.078 C 
ATOM      3  C1  OXE d   1       5.322  -0.755   0.008  0.00  0.00    -0.078 A 
ATOM      4  C2  OXE d   1       4.018  -0.970  -0.370  0.00  0.00    -0.078 A 
ATOM      5  C3  OXE d   1       3.330   0.021  -1.064  0.00  0.00     0.003 A 
ATOM      6  C4  OXE d   1       3.997   1.167  -1.513  0.00  0.00    -0.002 A 
ATOM      7  C5  OXE d   1       5.336   1.387  -1.173  0.00  0.00    -0.002 A 
ATOM      8  C6  OXE d   1       6.000   0.458  -0.379  0.00  0.00     0.003 A 
ENDROOT
TORSDOF 0
ENDMDL
