MODEL 1
REMARK minimizedAffinity 12.0680656
REMARK minimizedRMSD -1
REMARK  0 active torsions:
REMARK  status: ('A' for Active; 'I' for Inactive)
ROOT
ATOM      1  C2' OXE d   1       2.545  -1.703  -1.309  0.00  0.00     0.078 C 
ATOM      2  C1' OXE d   1       1.928   0.231   0.629  0.00  0.00     0.078 C 
ATOM      3  C1  OXE d   1       3.114   0.487  -0.267  0.00  0.00    -0.078 A 
ATOM      4  C2  OXE d   1       3.436  -0.487  -1.182  0.00  0.00    -0.078 A 
ATOM      5  C3  OXE d   1       4.488  -0.277  -2.070  0.00  0.00     0.003 A 
ATOM      6  C4  OXE d   1       5.313   0.846  -1.938  0.00  0.00    -0.002 A 
ATOM      7  C5  OXE d   1       5.026   1.831  -0.987  0.00  0.00    -0.002 A 
ATOM      8  C6  OXE d   1       3.907   1.687  -0.174  0.00  0.00     0.003 A 
ENDROOT
TORSDOF 0
ENDMDL
