MODEL 1
REMARK minimizedAffinity 1.11407268
REMARK minimizedRMSD -1
REMARK  0 active torsions:
REMARK  status: ('A' for Active; 'I' for Inactive)
ROOT
ATOM      1  C2' OXE d   1       0.058  -1.875  -1.125  0.00  0.00     0.078 C 
ATOM      2  C1' OXE d   1      -0.925  -4.499  -0.949  0.00  0.00     0.078 C 
ATOM      3  C1  OXE d   1      -1.097  -3.769  -2.258  0.00  0.00    -0.078 A 
ATOM      4  C2  OXE d   1      -0.655  -2.470  -2.320  0.00  0.00    -0.078 A 
ATOM      5  C3  OXE d   1      -0.740  -1.770  -3.520  0.00  0.00     0.003 A 
ATOM      6  C4  OXE d   1      -1.409  -2.323  -4.618  0.00  0.00    -0.002 A 
ATOM      7  C5  OXE d   1      -1.903  -3.631  -4.563  0.00  0.00    -0.002 A 
ATOM      8  C6  OXE d   1      -1.717  -4.381  -3.407  0.00  0.00     0.003 A 
ENDROOT
TORSDOF 0
ENDMDL
