MODEL 1
REMARK minimizedAffinity 8.94812393
REMARK minimizedRMSD -1
REMARK  0 active torsions:
REMARK  status: ('A' for Active; 'I' for Inactive)
ROOT
ATOM      1  C2' OXE d   1       1.168  -3.512  -0.843  0.00  0.00     0.078 C 
ATOM      2  C1' OXE d   1       3.033  -3.567  -2.940  0.00  0.00     0.078 C 
ATOM      3  C1  OXE d   1       3.004  -2.345  -2.057  0.00  0.00    -0.078 A 
ATOM      4  C2  OXE d   1       2.057  -2.307  -1.062  0.00  0.00    -0.078 A 
ATOM      5  C3  OXE d   1       2.023  -1.227  -0.184  0.00  0.00     0.003 A 
ATOM      6  C4  OXE d   1       2.842  -0.112  -0.399  0.00  0.00    -0.002 A 
ATOM      7  C5  OXE d   1       3.787  -0.114  -1.431  0.00  0.00    -0.002 A 
ATOM      8  C6  OXE d   1       3.910  -1.238  -2.240  0.00  0.00     0.003 A 
ENDROOT
TORSDOF 0
ENDMDL
