MODEL 1
REMARK minimizedAffinity -4.14028835
REMARK minimizedRMSD -1
REMARK  0 active torsions:
REMARK  status: ('A' for Active; 'I' for Inactive)
ROOT
ATOM      1  C   UNL d   1       1.570   1.337   1.098  0.00  0.00     0.124 A 
ATOM      2  C1  UNL d   1       1.948   0.382   0.165  0.00  0.00     0.062 A 
ATOM      3  C2  UNL d   1       0.983  -0.374  -0.493  0.00  0.00     0.162 A 
ATOM      4  C3  UNL d   1      -0.371  -0.177  -0.222  0.00  0.00    -0.034 A 
ATOM      5  C4  UNL d   1      -0.744   0.785   0.719  0.00  0.00     0.162 A 
ATOM      6  C5  UNL d   1       0.225   1.538   1.374  0.00  0.00     0.062 A 
ATOM      7  F   UNL d   1      -0.142   2.461   2.275  0.00  0.00    -0.097 F 
ATOM      8  F1  UNL d   1      -2.036   1.000   1.004  0.00  0.00    -0.096 F 
ATOM      9  I   UNL d   1      -1.818  -1.305  -1.204  0.00  0.00    -0.060 I 
ATOM     10  F2  UNL d   1       1.376  -1.291  -1.390  0.00  0.00    -0.096 F 
ATOM     11  F3  UNL d   1       3.247   0.185  -0.103  0.00  0.00    -0.097 F 
ATOM     12  F4  UNL d   1       2.502   2.062   1.730  0.00  0.00    -0.092 F 
ENDROOT
TORSDOF 0
ENDMDL
