MODEL 1
REMARK minimizedAffinity -2.71821856
REMARK minimizedRMSD -1
REMARK  0 active torsions:
REMARK  status: ('A' for Active; 'I' for Inactive)
ROOT
ATOM      1  C   UNL d   1       0.017   1.948   1.426  0.00  0.00     0.124 A 
ATOM      2  C1  UNL d   1      -0.992   1.069   1.055  0.00  0.00     0.062 A 
ATOM      3  C2  UNL d   1      -0.783   0.160   0.023  0.00  0.00     0.162 A 
ATOM      4  C3  UNL d   1       0.441   0.123  -0.646  0.00  0.00    -0.034 A 
ATOM      5  C4  UNL d   1       1.450   1.010  -0.268  0.00  0.00     0.162 A 
ATOM      6  C5  UNL d   1       1.236   1.917   0.765  0.00  0.00     0.062 A 
ATOM      7  F   UNL d   1       2.212   2.765   1.122  0.00  0.00    -0.097 F 
ATOM      8  F1  UNL d   1       2.639   1.002  -0.889  0.00  0.00    -0.096 F 
ATOM      9  I   UNL d   1       0.757  -1.236  -2.191  0.00  0.00    -0.060 I 
ATOM     10  F2  UNL d   1      -1.775  -0.677  -0.315  0.00  0.00    -0.096 F 
ATOM     11  F3  UNL d   1      -2.171   1.097   1.692  0.00  0.00    -0.097 F 
ATOM     12  F4  UNL d   1      -0.187   2.822   2.420  0.00  0.00    -0.092 F 
ENDROOT
TORSDOF 0
ENDMDL
