MODEL 1
REMARK minimizedAffinity -3.90744948
REMARK minimizedRMSD -1
REMARK  0 active torsions:
REMARK  status: ('A' for Active; 'I' for Inactive)
ROOT
ATOM      1  C   UNL d   1       0.283  -1.526  -0.173  0.00  0.00     0.124 A 
ATOM      2  C1  UNL d   1      -0.656  -0.895   0.631  0.00  0.00     0.062 A 
ATOM      3  C2  UNL d   1      -0.453   0.418   1.047  0.00  0.00     0.162 A 
ATOM      4  C3  UNL d   1       0.695   1.109   0.658  0.00  0.00    -0.034 A 
ATOM      5  C4  UNL d   1       1.635   0.467  -0.149  0.00  0.00     0.162 A 
ATOM      6  C5  UNL d   1       1.427  -0.845  -0.562  0.00  0.00     0.062 A 
ATOM      7  F   UNL d   1       2.336  -1.453  -1.339  0.00  0.00    -0.097 F 
ATOM      8  F1  UNL d   1       2.750   1.103  -0.541  0.00  0.00    -0.096 F 
ATOM      9  I   UNL d   1       1.003   3.072   1.278  0.00  0.00    -0.060 I 
ATOM     10  F2  UNL d   1      -1.377   1.003   1.823  0.00  0.00    -0.096 F 
ATOM     11  F3  UNL d   1      -1.763  -1.551   1.009  0.00  0.00    -0.097 F 
ATOM     12  F4  UNL d   1       0.085  -2.789  -0.571  0.00  0.00    -0.092 F 
ENDROOT
TORSDOF 0
ENDMDL
