MODEL 1
REMARK minimizedAffinity -1.6548506
REMARK minimizedRMSD -1
REMARK  0 active torsions:
REMARK  status: ('A' for Active; 'I' for Inactive)
ROOT
ATOM      1  C   UNL d   1       0.508   1.372   1.716  0.00  0.00     0.124 A 
ATOM      2  C1  UNL d   1       0.932   1.987   0.546  0.00  0.00     0.062 A 
ATOM      3  C2  UNL d   1       0.695   1.385  -0.686  0.00  0.00     0.162 A 
ATOM      4  C3  UNL d   1       0.030   0.161  -0.756  0.00  0.00    -0.034 A 
ATOM      5  C4  UNL d   1      -0.392  -0.452   0.425  0.00  0.00     0.162 A 
ATOM      6  C5  UNL d   1      -0.154   0.154   1.655  0.00  0.00     0.062 A 
ATOM      7  F   UNL d   1      -0.564  -0.442   2.784  0.00  0.00    -0.097 F 
ATOM      8  F1  UNL d   1      -1.035  -1.629   0.395  0.00  0.00    -0.096 F 
ATOM      9  I   UNL d   1      -0.325  -0.743  -2.597  0.00  0.00    -0.060 I 
ATOM     10  F2  UNL d   1       1.116   2.002  -1.801  0.00  0.00    -0.096 F 
ATOM     11  F3  UNL d   1       1.572   3.164   0.603  0.00  0.00    -0.097 F 
ATOM     12  F4  UNL d   1       0.737   1.953   2.901  0.00  0.00    -0.092 F 
ENDROOT
TORSDOF 0
ENDMDL
