MODEL 1
REMARK minimizedAffinity -0.115371779
REMARK minimizedRMSD -1
REMARK  0 active torsions:
REMARK  status: ('A' for Active; 'I' for Inactive)
ROOT
ATOM      1  C   UNL d   1       1.513   0.847   0.982  0.00  0.00     0.124 A 
ATOM      2  C1  UNL d   1       1.809  -0.113   0.024  0.00  0.00     0.062 A 
ATOM      3  C2  UNL d   1       0.784  -0.797  -0.622  0.00  0.00     0.162 A 
ATOM      4  C3  UNL d   1      -0.549  -0.523  -0.313  0.00  0.00    -0.034 A 
ATOM      5  C4  UNL d   1      -0.839   0.442   0.653  0.00  0.00     0.162 A 
ATOM      6  C5  UNL d   1       0.190   1.124   1.296  0.00  0.00     0.062 A 
ATOM      7  F   UNL d   1      -0.099   2.050   2.221  0.00  0.00    -0.097 F 
ATOM      8  F1  UNL d   1      -2.109   0.730   0.974  0.00  0.00    -0.096 F 
ATOM      9  I   UNL d   1      -2.085  -1.544  -1.277  0.00  0.00    -0.060 I 
ATOM     10  F2  UNL d   1       1.100  -1.719  -1.543  0.00  0.00    -0.096 F 
ATOM     11  F3  UNL d   1       3.087  -0.382  -0.279  0.00  0.00    -0.097 F 
ATOM     12  F4  UNL d   1       2.502   1.503   1.603  0.00  0.00    -0.092 F 
ENDROOT
TORSDOF 0
ENDMDL
