MODEL 1
REMARK minimizedAffinity -0.51099658
REMARK minimizedRMSD -1
REMARK  0 active torsions:
REMARK  status: ('A' for Active; 'I' for Inactive)
ROOT
ATOM      1  C   UNL d   1       0.719   2.334   1.248  0.00  0.00     0.124 A 
ATOM      2  C1  UNL d   1      -0.286   1.653   1.923  0.00  0.00     0.062 A 
ATOM      3  C2  UNL d   1      -0.977   0.622   1.293  0.00  0.00     0.162 A 
ATOM      4  C3  UNL d   1      -0.666   0.265  -0.019  0.00  0.00    -0.034 A 
ATOM      5  C4  UNL d   1       0.345   0.954  -0.691  0.00  0.00     0.162 A 
ATOM      6  C5  UNL d   1       1.033   1.984  -0.057  0.00  0.00     0.062 A 
ATOM      7  F   UNL d   1       2.003   2.640  -0.710  0.00  0.00    -0.097 F 
ATOM      8  F1  UNL d   1       0.670   0.636  -1.953  0.00  0.00    -0.096 F 
ATOM      9  I   UNL d   1      -1.698  -1.276  -0.964  0.00  0.00    -0.060 I 
ATOM     10  F2  UNL d   1      -1.943  -0.018   1.969  0.00  0.00    -0.096 F 
ATOM     11  F3  UNL d   1      -0.592   1.990   3.184  0.00  0.00    -0.097 F 
ATOM     12  F4  UNL d   1       1.382   3.326   1.856  0.00  0.00    -0.092 F 
ENDROOT
TORSDOF 0
ENDMDL
