MODEL 1
REMARK minimizedAffinity -0.685755491
REMARK minimizedRMSD -1
REMARK  0 active torsions:
REMARK  status: ('A' for Active; 'I' for Inactive)
ROOT
ATOM      1  C   UNL d   1       0.049   1.089   1.172  0.00  0.00     0.124 A 
ATOM      2  C1  UNL d   1       0.618   1.630   0.028  0.00  0.00     0.062 A 
ATOM      3  C2  UNL d   1       0.426   1.017  -1.207  0.00  0.00     0.162 A 
ATOM      4  C3  UNL d   1      -0.341  -0.145  -1.304  0.00  0.00    -0.034 A 
ATOM      5  C4  UNL d   1      -0.910  -0.683  -0.148  0.00  0.00     0.162 A 
ATOM      6  C5  UNL d   1      -0.714  -0.066   1.084  0.00  0.00     0.062 A 
ATOM      7  F   UNL d   1      -1.265  -0.590   2.188  0.00  0.00    -0.097 F 
ATOM      8  F1  UNL d   1      -1.653  -1.798  -0.205  0.00  0.00    -0.096 F 
ATOM      9  I   UNL d   1      -0.632  -1.065  -3.148  0.00  0.00    -0.060 I 
ATOM     10  F2  UNL d   1       0.988   1.561  -2.296  0.00  0.00    -0.096 F 
ATOM     11  F3  UNL d   1       1.357   2.746   0.111  0.00  0.00    -0.097 F 
ATOM     12  F4  UNL d   1       0.237   1.681   2.359  0.00  0.00    -0.092 F 
ENDROOT
TORSDOF 0
ENDMDL
