MODEL 1
REMARK minimizedAffinity -0.91200459
REMARK minimizedRMSD -1
REMARK  0 active torsions:
REMARK  status: ('A' for Active; 'I' for Inactive)
ROOT
ATOM      1  C   UNL d   1       1.181   1.157   0.787  0.00  0.00     0.124 A 
ATOM      2  C1  UNL d   1      -0.084   1.053   1.350  0.00  0.00     0.062 A 
ATOM      3  C2  UNL d   1      -0.988   0.110   0.871  0.00  0.00     0.162 A 
ATOM      4  C3  UNL d   1      -0.631  -0.738  -0.177  0.00  0.00    -0.034 A 
ATOM      5  C4  UNL d   1       0.642  -0.627  -0.739  0.00  0.00     0.162 A 
ATOM      6  C5  UNL d   1       1.543   0.317  -0.257  0.00  0.00     0.062 A 
ATOM      7  F   UNL d   1       2.764   0.416  -0.802  0.00  0.00    -0.097 F 
ATOM      8  F1  UNL d   1       1.018  -1.427  -1.748  0.00  0.00    -0.096 F 
ATOM      9  I   UNL d   1      -1.980  -2.150  -0.897  0.00  0.00    -0.060 I 
ATOM     10  F2  UNL d   1      -2.203   0.032   1.434  0.00  0.00    -0.096 F 
ATOM     11  F3  UNL d   1      -0.436   1.865   2.358  0.00  0.00    -0.097 F 
ATOM     12  F4  UNL d   1       2.049   2.066   1.249  0.00  0.00    -0.092 F 
ENDROOT
TORSDOF 0
ENDMDL
