MODEL 1
REMARK minimizedAffinity 1.65427971
REMARK minimizedRMSD -1
REMARK  0 active torsions:
REMARK  status: ('A' for Active; 'I' for Inactive)
ROOT
ATOM      1  C   UNL d   1       1.324   1.386   1.048  0.00  0.00     0.124 A 
ATOM      2  C1  UNL d   1       1.863   0.468   0.157  0.00  0.00     0.062 A 
ATOM      3  C2  UNL d   1       1.045  -0.476  -0.456  0.00  0.00     0.162 A 
ATOM      4  C3  UNL d   1      -0.322  -0.507  -0.181  0.00  0.00    -0.034 A 
ATOM      5  C4  UNL d   1      -0.857   0.419   0.717  0.00  0.00     0.162 A 
ATOM      6  C5  UNL d   1      -0.035   1.360   1.327  0.00  0.00     0.062 A 
ATOM      7  F   UNL d   1      -0.557   2.246   2.187  0.00  0.00    -0.097 F 
ATOM      8  F1  UNL d   1      -2.167   0.418   1.003  0.00  0.00    -0.096 F 
ATOM      9  I   UNL d   1      -1.550  -1.917  -1.096  0.00  0.00    -0.060 I 
ATOM     10  F2  UNL d   1       1.593  -1.351  -1.313  0.00  0.00    -0.096 F 
ATOM     11  F3  UNL d   1       3.176   0.490  -0.113  0.00  0.00    -0.097 F 
ATOM     12  F4  UNL d   1       2.114   2.292   1.637  0.00  0.00    -0.092 F 
ENDROOT
TORSDOF 0
ENDMDL
