MODEL 1
REMARK minimizedAffinity -1.27795339
REMARK minimizedRMSD -1
REMARK  0 active torsions:
REMARK  status: ('A' for Active; 'I' for Inactive)
ROOT
ATOM      1  C   UNL d   1       0.093  -1.923  -0.901  0.00  0.00     0.124 A 
ATOM      2  C1  UNL d   1       1.350  -1.334  -0.931  0.00  0.00     0.062 A 
ATOM      3  C2  UNL d   1       1.596  -0.173  -0.205  0.00  0.00     0.162 A 
ATOM      4  C3  UNL d   1       0.584   0.409   0.558  0.00  0.00    -0.034 A 
ATOM      5  C4  UNL d   1      -0.678  -0.188   0.583  0.00  0.00     0.162 A 
ATOM      6  C5  UNL d   1      -0.919  -1.349  -0.144  0.00  0.00     0.062 A 
ATOM      7  F   UNL d   1      -2.134  -1.916  -0.113  0.00  0.00    -0.097 F 
ATOM      8  F1  UNL d   1      -1.674   0.344   1.307  0.00  0.00    -0.096 F 
ATOM      9  I   UNL d   1       0.949   2.146   1.645  0.00  0.00    -0.060 I 
ATOM     10  F2  UNL d   1       2.820   0.374  -0.253  0.00  0.00    -0.096 F 
ATOM     11  F3  UNL d   1       2.329  -1.886  -1.662  0.00  0.00    -0.097 F 
ATOM     12  F4  UNL d   1      -0.142  -3.040  -1.600  0.00  0.00    -0.092 F 
ENDROOT
TORSDOF 0
ENDMDL
