MODEL 1
REMARK minimizedAffinity 1.33838713
REMARK minimizedRMSD -1
REMARK  0 active torsions:
REMARK  status: ('A' for Active; 'I' for Inactive)
ROOT
ATOM      1  C   UNL d   1       1.282   1.171   1.311  0.00  0.00     0.124 A 
ATOM      2  C1  UNL d   1      -0.075   1.306   1.573  0.00  0.00     0.062 A 
ATOM      3  C2  UNL d   1      -1.006   0.585   0.830  0.00  0.00     0.162 A 
ATOM      4  C3  UNL d   1      -0.584  -0.278  -0.181  0.00  0.00    -0.034 A 
ATOM      5  C4  UNL d   1       0.782  -0.408  -0.438  0.00  0.00     0.162 A 
ATOM      6  C5  UNL d   1       1.709   0.314   0.306  0.00  0.00     0.062 A 
ATOM      7  F   UNL d   1       3.019   0.183   0.052  0.00  0.00    -0.097 F 
ATOM      8  F1  UNL d   1       1.223  -1.229  -1.403  0.00  0.00    -0.096 F 
ATOM      9  I   UNL d   1      -1.973  -1.357  -1.293  0.00  0.00    -0.060 I 
ATOM     10  F2  UNL d   1      -2.310   0.735   1.105  0.00  0.00    -0.096 F 
ATOM     11  F3  UNL d   1      -0.490   2.133   2.543  0.00  0.00    -0.097 F 
ATOM     12  F4  UNL d   1       2.176   1.866   2.026  0.00  0.00    -0.092 F 
ENDROOT
TORSDOF 0
ENDMDL
