MODEL 1
REMARK minimizedAffinity -0.96182245
REMARK minimizedRMSD -1
REMARK  0 active torsions:
REMARK  status: ('A' for Active; 'I' for Inactive)
ROOT
ATOM      1  C   UNL d   1       1.696   2.082   1.648  0.00  0.00     0.124 A 
ATOM      2  C1  UNL d   1       2.162   1.744   0.385  0.00  0.00     0.062 A 
ATOM      3  C2  UNL d   1       1.447   0.852  -0.409  0.00  0.00     0.162 A 
ATOM      4  C3  UNL d   1       0.257   0.293   0.057  0.00  0.00    -0.034 A 
ATOM      5  C4  UNL d   1      -0.205   0.638   1.328  0.00  0.00     0.162 A 
ATOM      6  C5  UNL d   1       0.514   1.529   2.118  0.00  0.00     0.062 A 
ATOM      7  F   UNL d   1       0.062   1.855   3.338  0.00  0.00    -0.097 F 
ATOM      8  F1  UNL d   1      -1.345   0.119   1.807  0.00  0.00    -0.096 F 
ATOM      9  I   UNL d   1      -0.816  -1.041  -1.128  0.00  0.00    -0.060 I 
ATOM     10  F2  UNL d   1       1.921   0.543  -1.625  0.00  0.00    -0.096 F 
ATOM     11  F3  UNL d   1       3.305   2.276  -0.071  0.00  0.00    -0.097 F 
ATOM     12  F4  UNL d   1       2.387   2.940   2.410  0.00  0.00    -0.092 F 
ENDROOT
TORSDOF 0
ENDMDL
