MODEL 1
REMARK minimizedAffinity -3.52356863
REMARK minimizedRMSD -1
REMARK  0 active torsions:
REMARK  status: ('A' for Active; 'I' for Inactive)
ROOT
ATOM      1  C   UNL d   1       2.165   2.215   1.042  0.00  0.00     0.124 A 
ATOM      2  C1  UNL d   1       0.817   1.997   1.288  0.00  0.00     0.062 A 
ATOM      3  C2  UNL d   1       0.180   0.878   0.759  0.00  0.00     0.162 A 
ATOM      4  C3  UNL d   1       0.892  -0.034  -0.021  0.00  0.00    -0.034 A 
ATOM      5  C4  UNL d   1       2.248   0.193  -0.265  0.00  0.00     0.162 A 
ATOM      6  C5  UNL d   1       2.879   1.313   0.266  0.00  0.00     0.062 A 
ATOM      7  F   UNL d   1       4.182   1.522   0.027  0.00  0.00    -0.097 F 
ATOM      8  F1  UNL d   1       2.963  -0.663  -1.011  0.00  0.00    -0.096 F 
ATOM      9  I   UNL d   1      -0.055  -1.708  -0.814  0.00  0.00    -0.060 I 
ATOM     10  F2  UNL d   1      -1.124   0.692   1.013  0.00  0.00    -0.096 F 
ATOM     11  F3  UNL d   1       0.124   2.867   2.037  0.00  0.00    -0.097 F 
ATOM     12  F4  UNL d   1       2.774   3.293   1.552  0.00  0.00    -0.092 F 
ENDROOT
TORSDOF 0
ENDMDL
