MODEL 1
REMARK minimizedAffinity -3.2231009
REMARK minimizedRMSD -1
REMARK  0 active torsions:
REMARK  status: ('A' for Active; 'I' for Inactive)
ROOT
ATOM      1  C   UNL d   1      -0.526  -1.082  -0.045  0.00  0.00     0.124 A 
ATOM      2  C1  UNL d   1      -0.811  -0.116   0.910  0.00  0.00     0.062 A 
ATOM      3  C2  UNL d   1       0.138   0.850   1.233  0.00  0.00     0.162 A 
ATOM      4  C3  UNL d   1       1.381   0.856   0.599  0.00  0.00    -0.034 A 
ATOM      5  C4  UNL d   1       1.660  -0.120  -0.360  0.00  0.00     0.162 A 
ATOM      6  C5  UNL d   1       0.709  -1.083  -0.679  0.00  0.00     0.062 A 
ATOM      7  F   UNL d   1       0.985  -2.016  -1.602  0.00  0.00    -0.097 F 
ATOM      8  F1  UNL d   1       2.845  -0.144  -0.988  0.00  0.00    -0.096 F 
ATOM      9  I   UNL d   1       2.802   2.298   1.079  0.00  0.00    -0.060 I 
ATOM     10  F2  UNL d   1      -0.164   1.772   2.160  0.00  0.00    -0.096 F 
ATOM     11  F3  UNL d   1      -2.002  -0.113   1.524  0.00  0.00    -0.097 F 
ATOM     12  F4  UNL d   1      -1.440  -2.011  -0.353  0.00  0.00    -0.092 F 
ENDROOT
TORSDOF 0
ENDMDL
