MODEL 1
REMARK minimizedAffinity 0.772417545
REMARK minimizedRMSD -1
REMARK  0 active torsions:
REMARK  status: ('A' for Active; 'I' for Inactive)
ROOT
ATOM      1  C   UNL d   1      -0.377   1.227   1.838  0.00  0.00     0.124 A 
ATOM      2  C1  UNL d   1       0.693   1.367   0.964  0.00  0.00     0.062 A 
ATOM      3  C2  UNL d   1       0.754   0.600  -0.195  0.00  0.00     0.162 A 
ATOM      4  C3  UNL d   1      -0.258  -0.313  -0.490  0.00  0.00    -0.034 A 
ATOM      5  C4  UNL d   1      -1.331  -0.448   0.394  0.00  0.00     0.162 A 
ATOM      6  C5  UNL d   1      -1.387   0.320   1.552  0.00  0.00     0.062 A 
ATOM      7  F   UNL d   1      -2.422   0.184   2.394  0.00  0.00    -0.097 F 
ATOM      8  F1  UNL d   1      -2.321  -1.317   0.141  0.00  0.00    -0.096 F 
ATOM      9  I   UNL d   1      -0.171  -1.461  -2.223  0.00  0.00    -0.060 I 
ATOM     10  F2  UNL d   1       1.800   0.756  -1.021  0.00  0.00    -0.096 F 
ATOM     11  F3  UNL d   1       1.671   2.242   1.239  0.00  0.00    -0.097 F 
ATOM     12  F4  UNL d   1      -0.433   1.966   2.954  0.00  0.00    -0.092 F 
ENDROOT
TORSDOF 0
ENDMDL
