MODEL 1
REMARK minimizedAffinity -0.578240931
REMARK minimizedRMSD -1
REMARK  0 active torsions:
REMARK  status: ('A' for Active; 'I' for Inactive)
ROOT
ATOM      1  C   UNL d   1       4.025   3.956  -2.822  0.00  0.00     0.124 A 
ATOM      2  C1  UNL d   1       2.656   3.893  -2.602  0.00  0.00     0.062 A 
ATOM      3  C2  UNL d   1       1.774   4.476  -3.508  0.00  0.00     0.162 A 
ATOM      4  C3  UNL d   1       2.258   5.126  -4.643  0.00  0.00    -0.034 A 
ATOM      5  C4  UNL d   1       3.636   5.186  -4.857  0.00  0.00     0.162 A 
ATOM      6  C5  UNL d   1       4.514   4.602  -3.949  0.00  0.00     0.062 A 
ATOM      7  F   UNL d   1       5.836   4.664  -4.163  0.00  0.00    -0.097 F 
ATOM      8  F1  UNL d   1       4.136   5.804  -5.938  0.00  0.00    -0.096 F 
ATOM      9  I   UNL d   1       0.943   5.999  -5.999  0.00  0.00    -0.060 I 
ATOM     10  F2  UNL d   1       0.456   4.400  -3.270  0.00  0.00    -0.096 F 
ATOM     11  F3  UNL d   1       2.182   3.270  -1.514  0.00  0.00    -0.097 F 
ATOM     12  F4  UNL d   1       4.872   3.395  -1.949  0.00  0.00    -0.092 F 
ENDROOT
TORSDOF 0
ENDMDL
