MODEL 1
REMARK minimizedAffinity 7.50680447
REMARK minimizedRMSD -1
REMARK  0 active torsions:
REMARK  status: ('A' for Active; 'I' for Inactive)
ROOT
ATOM      1  C   UNL d   1      -0.614   0.143   2.296  0.00  0.00     0.124 A 
ATOM      2  C1  UNL d   1      -0.350   1.490   2.500  0.00  0.00     0.062 A 
ATOM      3  C2  UNL d   1       0.223   2.252   1.486  0.00  0.00     0.162 A 
ATOM      4  C3  UNL d   1       0.536   1.668   0.258  0.00  0.00    -0.034 A 
ATOM      5  C4  UNL d   1       0.268   0.312   0.061  0.00  0.00     0.162 A 
ATOM      6  C5  UNL d   1      -0.305  -0.445   1.078  0.00  0.00     0.062 A 
ATOM      7  F   UNL d   1      -0.559  -1.746   0.880  0.00  0.00    -0.097 F 
ATOM      8  F1  UNL d   1       0.557  -0.281  -1.107  0.00  0.00    -0.096 F 
ATOM      9  I   UNL d   1       1.394   2.804  -1.260  0.00  0.00    -0.060 I 
ATOM     10  F2  UNL d   1       0.468   3.552   1.710  0.00  0.00    -0.096 F 
ATOM     11  F3  UNL d   1      -0.647   2.060   3.677  0.00  0.00    -0.097 F 
ATOM     12  F4  UNL d   1      -1.166  -0.588   3.274  0.00  0.00    -0.092 F 
ENDROOT
TORSDOF 0
ENDMDL
