MODEL 1
REMARK minimizedAffinity -1.55425191
REMARK minimizedRMSD -1
REMARK  0 active torsions:
REMARK  status: ('A' for Active; 'I' for Inactive)
ROOT
ATOM      1  C   UNL d   1      -1.062   1.158   0.429  0.00  0.00     0.020 A 
ATOM      2  C1  UNL d   1       0.323   1.281   0.522  0.00  0.00     0.020 A 
ATOM      3  C2  UNL d   1       1.150   0.304  -0.035  0.00  0.00     0.034 A 
ATOM      4  C3  UNL d   1       0.592  -0.801  -0.688  0.00  0.00     0.017 A 
ATOM      5  C4  UNL d   1      -0.799  -0.924  -0.781  0.00  0.00     0.017 A 
ATOM      6  C5  UNL d   1      -1.622   0.058  -0.221  0.00  0.00     0.034 A 
ATOM      7 Cl   UNL d   1      -1.561  -2.259  -1.571  0.00  0.00    -0.070 Cl
ATOM      8 Cl1  UNL d   1       1.674  -1.972  -1.354  0.00  0.00    -0.070 Cl
ENDROOT
TORSDOF 0
ENDMDL
