MODEL 1
REMARK minimizedAffinity -4.87704277
REMARK minimizedRMSD -1
REMARK  0 active torsions:
REMARK  status: ('A' for Active; 'I' for Inactive)
ROOT
ATOM      1  C   UNL d   1      -0.785   1.588   1.756  0.00  0.00     0.020 A 
ATOM      2  C1  UNL d   1       0.320   2.427   1.617  0.00  0.00     0.020 A 
ATOM      3  C2  UNL d   1       1.347   2.088   0.734  0.00  0.00     0.034 A 
ATOM      4  C3  UNL d   1       1.271   0.908  -0.014  0.00  0.00     0.017 A 
ATOM      5  C4  UNL d   1       0.162   0.066   0.126  0.00  0.00     0.017 A 
ATOM      6  C5  UNL d   1      -0.864   0.410   1.012  0.00  0.00     0.034 A 
ATOM      7 Cl   UNL d   1      -0.003  -1.407  -0.763  0.00  0.00    -0.070 Cl
ATOM      8 Cl1  UNL d   1       2.577   0.551  -1.088  0.00  0.00    -0.070 Cl
ENDROOT
TORSDOF 0
ENDMDL
