MODEL 1
REMARK minimizedAffinity -4.56330967
REMARK minimizedRMSD -1
REMARK  0 active torsions:
REMARK  status: ('A' for Active; 'I' for Inactive)
ROOT
ATOM      1  C   UNL d   1       2.655   2.450   0.781  0.00  0.00     0.020 A 
ATOM      2  C1  UNL d   1       3.167   1.549  -0.152  0.00  0.00     0.020 A 
ATOM      3  C2  UNL d   1       2.371   0.502  -0.620  0.00  0.00     0.034 A 
ATOM      4  C3  UNL d   1       1.059   0.353  -0.156  0.00  0.00     0.017 A 
ATOM      5  C4  UNL d   1       0.546   1.258   0.780  0.00  0.00     0.017 A 
ATOM      6  C5  UNL d   1       1.348   2.305   1.246  0.00  0.00     0.034 A 
ATOM      7 Cl   UNL d   1      -1.063   1.139   1.400  0.00  0.00    -0.070 Cl
ATOM      8 Cl1  UNL d   1       0.131  -0.966  -0.778  0.00  0.00    -0.070 Cl
ENDROOT
TORSDOF 0
ENDMDL
