MODEL 1
REMARK minimizedAffinity -1.47858608
REMARK minimizedRMSD -1
REMARK  0 active torsions:
REMARK  status: ('A' for Active; 'I' for Inactive)
ROOT
ATOM      1  C   UNL d   1      -2.440  -1.016  -2.781  0.00  0.00     0.020 A 
ATOM      2  C1  UNL d   1      -1.315  -1.054  -3.605  0.00  0.00     0.020 A 
ATOM      3  C2  UNL d   1      -0.041  -0.904  -3.053  0.00  0.00     0.034 A 
ATOM      4  C3  UNL d   1       0.112  -0.716  -1.675  0.00  0.00     0.017 A 
ATOM      5  C4  UNL d   1      -1.018  -0.678  -0.849  0.00  0.00     0.017 A 
ATOM      6  C5  UNL d   1      -2.291  -0.829  -1.407  0.00  0.00     0.034 A 
ATOM      7 Cl   UNL d   1      -0.909  -0.449   0.861  0.00  0.00    -0.070 Cl
ATOM      8 Cl1  UNL d   1       1.717  -0.538  -1.061  0.00  0.00    -0.070 Cl
ENDROOT
TORSDOF 0
ENDMDL
