MODEL 1
REMARK minimizedAffinity -4.83226299
REMARK minimizedRMSD -1
REMARK  0 active torsions:
REMARK  status: ('A' for Active; 'I' for Inactive)
ROOT
ATOM      1  C   UNL d   1       1.232   2.274  -0.049  0.00  0.00     0.020 A 
ATOM      2  C1  UNL d   1       0.658   2.786   1.114  0.00  0.00     0.020 A 
ATOM      3  C2  UNL d   1      -0.261   2.020   1.834  0.00  0.00     0.034 A 
ATOM      4  C3  UNL d   1      -0.610   0.739   1.392  0.00  0.00     0.017 A 
ATOM      5  C4  UNL d   1      -0.033   0.226   0.224  0.00  0.00     0.017 A 
ATOM      6  C5  UNL d   1       0.887   0.997  -0.493  0.00  0.00     0.034 A 
ATOM      7 Cl   UNL d   1      -0.414  -1.346  -0.385  0.00  0.00    -0.070 Cl
ATOM      8 Cl1  UNL d   1      -1.754  -0.152   2.331  0.00  0.00    -0.070 Cl
ENDROOT
TORSDOF 0
ENDMDL
