MODEL 1
REMARK minimizedAffinity -1.62083471
REMARK minimizedRMSD -1
REMARK  0 active torsions:
REMARK  status: ('A' for Active; 'I' for Inactive)
ROOT
ATOM      1  C   UNL d   1      -0.939  -0.904   0.574  0.00  0.00     0.020 A 
ATOM      2  C1  UNL d   1      -0.394  -0.173  -0.481  0.00  0.00     0.020 A 
ATOM      3  C2  UNL d   1       0.371   0.966  -0.220  0.00  0.00     0.034 A 
ATOM      4  C3  UNL d   1       0.592   1.377   1.099  0.00  0.00     0.017 A 
ATOM      5  C4  UNL d   1       0.045   0.644   2.157  0.00  0.00     0.017 A 
ATOM      6  C5  UNL d   1      -0.720  -0.496   1.890  0.00  0.00     0.034 A 
ATOM      7 Cl   UNL d   1       0.275   1.089   3.811  0.00  0.00    -0.070 Cl
ATOM      8 Cl1  UNL d   1       1.548   2.795   1.348  0.00  0.00    -0.070 Cl
ENDROOT
TORSDOF 0
ENDMDL
