MODEL 1
REMARK minimizedAffinity -2.29493022
REMARK minimizedRMSD -1
REMARK  0 active torsions:
REMARK  status: ('A' for Active; 'I' for Inactive)
ROOT
ATOM      1  C   UNL d   1      -0.500  -1.524  -1.148  0.00  0.00     0.020 A 
ATOM      2  C1  UNL d   1      -1.359  -0.844  -0.285  0.00  0.00     0.020 A 
ATOM      3  C2  UNL d   1      -0.881   0.224   0.477  0.00  0.00     0.034 A 
ATOM      4  C3  UNL d   1       0.458   0.617   0.377  0.00  0.00     0.017 A 
ATOM      5  C4  UNL d   1       1.320  -0.066  -0.489  0.00  0.00     0.017 A 
ATOM      6  C5  UNL d   1       0.837  -1.136  -1.249  0.00  0.00     0.034 A 
ATOM      7 Cl   UNL d   1       2.986   0.360  -0.665  0.00  0.00    -0.070 Cl
ATOM      8 Cl1  UNL d   1       0.980   1.947   1.348  0.00  0.00    -0.070 Cl
ENDROOT
TORSDOF 0
ENDMDL
