MODEL 1
REMARK minimizedAffinity -0.572046518
REMARK minimizedRMSD -1
REMARK  0 active torsions:
REMARK  status: ('A' for Active; 'I' for Inactive)
ROOT
ATOM      1  C   UNL d   1       0.679   0.364  -0.711  0.00  0.00     0.020 A 
ATOM      2  C1  UNL d   1       0.113  -0.267   0.396  0.00  0.00     0.020 A 
ATOM      3  C2  UNL d   1      -0.840  -1.272   0.216  0.00  0.00     0.034 A 
ATOM      4  C3  UNL d   1      -1.229  -1.649  -1.075  0.00  0.00     0.017 A 
ATOM      5  C4  UNL d   1      -0.660  -1.015  -2.185  0.00  0.00     0.017 A 
ATOM      6  C5  UNL d   1       0.294  -0.010  -1.999  0.00  0.00     0.034 A 
ATOM      7 Cl   UNL d   1      -1.090  -1.427  -3.808  0.00  0.00    -0.070 Cl
ATOM      8 Cl1  UNL d   1      -2.413  -2.899  -1.224  0.00  0.00    -0.070 Cl
ENDROOT
TORSDOF 0
ENDMDL
