MODEL 1
REMARK minimizedAffinity -3.18835521
REMARK minimizedRMSD -1
REMARK  0 active torsions:
REMARK  status: ('A' for Active; 'I' for Inactive)
ROOT
ATOM      1  C   UNL d   1       0.409  -1.385  -0.556  0.00  0.00     0.020 A 
ATOM      2  C1  UNL d   1       1.572  -0.638  -0.739  0.00  0.00     0.020 A 
ATOM      3  C2  UNL d   1       1.644   0.671  -0.258  0.00  0.00     0.034 A 
ATOM      4  C3  UNL d   1       0.552   1.237   0.408  0.00  0.00     0.017 A 
ATOM      5  C4  UNL d   1      -0.615   0.487   0.592  0.00  0.00     0.017 A 
ATOM      6  C5  UNL d   1      -0.682  -0.823   0.109  0.00  0.00     0.034 A 
ATOM      7 Cl   UNL d   1      -2.004   1.118   1.405  0.00  0.00    -0.070 Cl
ATOM      8 Cl1  UNL d   1       0.711   2.861   0.977  0.00  0.00    -0.070 Cl
ENDROOT
TORSDOF 0
ENDMDL
