MODEL 1
REMARK minimizedAffinity -4.8078742
REMARK minimizedRMSD -1
REMARK  0 active torsions:
REMARK  status: ('A' for Active; 'I' for Inactive)
ROOT
ATOM      1  C   UNL d   1      -0.033   1.685   1.938  0.00  0.00     0.020 A 
ATOM      2  C1  UNL d   1      -1.348   1.523   1.503  0.00  0.00     0.020 A 
ATOM      3  C2  UNL d   1      -1.626   0.694   0.414  0.00  0.00     0.034 A 
ATOM      4  C3  UNL d   1      -0.588   0.025  -0.244  0.00  0.00     0.017 A 
ATOM      5  C4  UNL d   1       0.732   0.189   0.193  0.00  0.00     0.017 A 
ATOM      6  C5  UNL d   1       1.005   1.020   1.284  0.00  0.00     0.034 A 
ATOM      7 Cl   UNL d   1       2.066  -0.604  -0.569  0.00  0.00    -0.070 Cl
ATOM      8 Cl1  UNL d   1      -1.004  -0.985  -1.583  0.00  0.00    -0.070 Cl
ENDROOT
TORSDOF 0
ENDMDL
