MODEL 1
REMARK minimizedAffinity -3.76027155
REMARK minimizedRMSD -1
REMARK  0 active torsions:
REMARK  status: ('A' for Active; 'I' for Inactive)
ROOT
ATOM      1  C   UNL d   1       2.307   1.801   0.193  0.00  0.00     0.020 A 
ATOM      2  C1  UNL d   1       1.487   2.321   1.194  0.00  0.00     0.020 A 
ATOM      3  C2  UNL d   1       0.307   1.661   1.543  0.00  0.00     0.034 A 
ATOM      4  C3  UNL d   1      -0.057   0.477   0.890  0.00  0.00     0.017 A 
ATOM      5  C4  UNL d   1       0.767  -0.044  -0.115  0.00  0.00     0.017 A 
ATOM      6  C5  UNL d   1       1.947   0.622  -0.460  0.00  0.00     0.034 A 
ATOM      7 Cl   UNL d   1       0.384  -1.499  -0.965  0.00  0.00    -0.070 Cl
ATOM      8 Cl1  UNL d   1      -1.529  -0.287   1.373  0.00  0.00    -0.070 Cl
ENDROOT
TORSDOF 0
ENDMDL
