MODEL 1
REMARK minimizedAffinity -2.64593768
REMARK minimizedRMSD -1
REMARK  0 active torsions:
REMARK  status: ('A' for Active; 'I' for Inactive)
ROOT
ATOM      1  C   UNL d   1      -0.810   1.859   1.873  0.00  0.00     0.020 A 
ATOM      2  C1  UNL d   1       0.398   2.554   1.837  0.00  0.00     0.020 A 
ATOM      3  C2  UNL d   1       1.420   2.135   0.983  0.00  0.00     0.034 A 
ATOM      4  C3  UNL d   1       1.237   1.017   0.161  0.00  0.00     0.017 A 
ATOM      5  C4  UNL d   1       0.024   0.319   0.198  0.00  0.00     0.017 A 
ATOM      6  C5  UNL d   1      -0.996   0.743   1.055  0.00  0.00     0.034 A 
ATOM      7 Cl   UNL d   1      -0.277  -1.069  -0.787  0.00  0.00    -0.070 Cl
ATOM      8 Cl1  UNL d   1       2.543   0.555  -0.871  0.00  0.00    -0.070 Cl
ENDROOT
TORSDOF 0
ENDMDL
