MODEL 1
REMARK minimizedAffinity -1.73174357
REMARK minimizedRMSD -1
REMARK  0 active torsions:
REMARK  status: ('A' for Active; 'I' for Inactive)
ROOT
ATOM      1  C   UNL d   1       1.042  -0.525  -0.960  0.00  0.00     0.020 A 
ATOM      2  C1  UNL d   1      -0.021  -1.301  -0.498  0.00  0.00     0.020 A 
ATOM      3  C2  UNL d   1      -0.867  -0.805   0.496  0.00  0.00     0.034 A 
ATOM      4  C3  UNL d   1      -0.651   0.469   1.033  0.00  0.00     0.017 A 
ATOM      5  C4  UNL d   1       0.416   1.247   0.569  0.00  0.00     0.017 A 
ATOM      6  C5  UNL d   1       1.259   0.746  -0.427  0.00  0.00     0.034 A 
ATOM      7 Cl   UNL d   1       0.745   2.829   1.183  0.00  0.00    -0.070 Cl
ATOM      8 Cl1  UNL d   1      -1.737   1.018   2.260  0.00  0.00    -0.070 Cl
ENDROOT
TORSDOF 0
ENDMDL
