MODEL 1
REMARK minimizedAffinity -2.12248111
REMARK minimizedRMSD -1
REMARK  0 active torsions:
REMARK  status: ('A' for Active; 'I' for Inactive)
ROOT
ATOM      1  C   UNL d   1      -0.965   1.363   1.679  0.00  0.00     0.020 A 
ATOM      2  C1  UNL d   1       0.253   2.033   1.572  0.00  0.00     0.020 A 
ATOM      3  C2  UNL d   1       1.241   1.552   0.710  0.00  0.00     0.034 A 
ATOM      4  C3  UNL d   1       1.012   0.398  -0.049  0.00  0.00     0.017 A 
ATOM      5  C4  UNL d   1      -0.211  -0.274   0.059  0.00  0.00     0.017 A 
ATOM      6  C5  UNL d   1      -1.196   0.212   0.924  0.00  0.00     0.034 A 
ATOM      7 Cl   UNL d   1      -0.566  -1.703  -0.844  0.00  0.00    -0.070 Cl
ATOM      8 Cl1  UNL d   1       2.278  -0.139  -1.095  0.00  0.00    -0.070 Cl
ENDROOT
TORSDOF 0
ENDMDL
