MODEL 1
REMARK minimizedAffinity -1.91966045
REMARK minimizedRMSD -1
REMARK  0 active torsions:
REMARK  status: ('A' for Active; 'I' for Inactive)
ROOT
ATOM      1  C   UNL d   1       1.178   2.650   1.029  0.00  0.00     0.020 A 
ATOM      2  C1  UNL d   1       1.899   2.185  -0.070  0.00  0.00     0.020 A 
ATOM      3  C2  UNL d   1       1.613   0.930  -0.612  0.00  0.00     0.034 A 
ATOM      4  C3  UNL d   1       0.605   0.136  -0.056  0.00  0.00     0.017 A 
ATOM      5  C4  UNL d   1      -0.119   0.604   1.048  0.00  0.00     0.017 A 
ATOM      6  C5  UNL d   1       0.171   1.861   1.586  0.00  0.00     0.034 A 
ATOM      7 Cl   UNL d   1      -1.378  -0.319   1.789  0.00  0.00    -0.070 Cl
ATOM      8 Cl1  UNL d   1       0.305  -1.405  -0.777  0.00  0.00    -0.070 Cl
ENDROOT
TORSDOF 0
ENDMDL
