MODEL 1
REMARK minimizedAffinity -1.98126197
REMARK minimizedRMSD -1
REMARK  0 active torsions:
REMARK  status: ('A' for Active; 'I' for Inactive)
ROOT
ATOM      1  C   UNL d   1       1.149   2.845   0.005  0.00  0.00     0.020 A 
ATOM      2  C1  UNL d   1       1.075   2.665   1.385  0.00  0.00     0.020 A 
ATOM      3  C2  UNL d   1       0.410   1.555   1.910  0.00  0.00     0.034 A 
ATOM      4  C3  UNL d   1      -0.185   0.621   1.055  0.00  0.00     0.017 A 
ATOM      5  C4  UNL d   1      -0.110   0.802  -0.331  0.00  0.00     0.017 A 
ATOM      6  C5  UNL d   1       0.557   1.915  -0.852  0.00  0.00     0.034 A 
ATOM      7 Cl   UNL d   1      -0.819  -0.308  -1.450  0.00  0.00    -0.070 Cl
ATOM      8 Cl1  UNL d   1      -0.990  -0.728   1.773  0.00  0.00    -0.070 Cl
ENDROOT
TORSDOF 0
ENDMDL
