MODEL 1
REMARK minimizedAffinity -5.31559706
REMARK minimizedRMSD -1
REMARK  2 active torsions:
REMARK  status: ('A' for Active; 'I' for Inactive)
REMARK    1  A    between atoms: C1_2  and  C2_3 
REMARK    2  A    between atoms: C2_3  and  C3_4 
ROOT
ATOM      1  C3  UNL d   1       0.891   0.872   1.203  0.00  0.00    -0.075 A 
ATOM      2  C4  UNL d   1       0.381  -0.134   0.369  0.00  0.00     0.002 A 
ATOM      3  C5  UNL d   1      -0.546  -1.056   0.857  0.00  0.00     0.002 A 
ATOM      4  C6  UNL d   1      -0.967  -0.990   2.183  0.00  0.00    -0.004 A 
ATOM      5  C7  UNL d   1      -0.455  -0.005   3.024  0.00  0.00     0.002 A 
ATOM      6  C8  UNL d   1       0.470   0.921   2.538  0.00  0.00     0.002 A 
ENDROOT
BRANCH   1   7
ATOM      7  C2  UNL d   1       1.872   1.890   0.673  0.00  0.00     0.056 C 
BRANCH   7   8
ATOM      8  C1  UNL d   1       3.216   1.902   1.409  0.00  0.00     0.007 C 
ATOM      9  C   UNL d   1       4.159   2.993   0.919  0.00  0.00     0.009 C 
ENDBRANCH   7   8
ENDBRANCH   1   7
TORSDOF 2
ENDMDL
