MODEL 1
REMARK minimizedAffinity -5.22455883
REMARK minimizedRMSD -1
REMARK  2 active torsions:
REMARK  status: ('A' for Active; 'I' for Inactive)
REMARK    1  A    between atoms: C1_2  and  C2_3 
REMARK    2  A    between atoms: C2_3  and  C3_4 
ROOT
ATOM      1  C3  UNL d   1       2.139  -0.699  -3.631  0.00  0.00    -0.075 A 
ATOM      2  C4  UNL d   1       1.430   0.302  -2.952  0.00  0.00     0.002 A 
ATOM      3  C5  UNL d   1       0.163   0.043  -2.429  0.00  0.00     0.002 A 
ATOM      4  C6  UNL d   1      -0.416  -1.214  -2.588  0.00  0.00    -0.004 A 
ATOM      5  C7  UNL d   1       0.272  -2.212  -3.276  0.00  0.00     0.002 A 
ATOM      6  C8  UNL d   1       1.542  -1.957  -3.796  0.00  0.00     0.002 A 
ENDROOT
BRANCH   1   7
ATOM      7  C2  UNL d   1       3.523  -0.434  -4.173  0.00  0.00     0.056 C 
BRANCH   7   8
ATOM      8  C1  UNL d   1       4.116   0.910  -3.738  0.00  0.00     0.007 C 
ATOM      9  C   UNL d   1       4.817   1.651  -4.869  0.00  0.00     0.009 C 
ENDBRANCH   7   8
ENDBRANCH   1   7
TORSDOF 2
ENDMDL
