MODEL 1
REMARK minimizedAffinity -5.02112103
REMARK minimizedRMSD -1
REMARK  2 active torsions:
REMARK  status: ('A' for Active; 'I' for Inactive)
REMARK    1  A    between atoms: C1_2  and  C2_3 
REMARK    2  A    between atoms: C2_3  and  C3_4 
ROOT
ATOM      1  C3  UNL d   1       0.125   0.062  -0.078  0.00  0.00    -0.075 A 
ATOM      2  C4  UNL d   1       1.408   0.307   0.432  0.00  0.00     0.002 A 
ATOM      3  C5  UNL d   1       1.646   0.259   1.806  0.00  0.00     0.002 A 
ATOM      4  C6  UNL d   1       0.604  -0.025   2.686  0.00  0.00    -0.004 A 
ATOM      5  C7  UNL d   1      -0.679  -0.253   2.191  0.00  0.00     0.002 A 
ATOM      6  C8  UNL d   1      -0.918  -0.210   0.817  0.00  0.00     0.002 A 
ENDROOT
BRANCH   1   7
ATOM      7  C2  UNL d   1      -0.132   0.084  -1.566  0.00  0.00     0.056 C 
BRANCH   7   8
ATOM      8  C1  UNL d   1       1.075  -0.334  -2.414  0.00  0.00     0.007 C 
ATOM      9  C   UNL d   1       0.747  -1.421  -3.429  0.00  0.00     0.009 C 
ENDBRANCH   7   8
ENDBRANCH   1   7
TORSDOF 2
ENDMDL
