MODEL 1
REMARK minimizedAffinity -5.75470877
REMARK minimizedRMSD -1
REMARK  2 active torsions:
REMARK  status: ('A' for Active; 'I' for Inactive)
REMARK    1  A    between atoms: C1_2  and  C2_3 
REMARK    2  A    between atoms: C2_3  and  C3_4 
ROOT
ATOM      1  C3  UNL d   1       0.304  -0.270   0.045  0.00  0.00    -0.075 A 
ATOM      2  C4  UNL d   1      -0.815  -0.919   0.588  0.00  0.00     0.002 A 
ATOM      3  C5  UNL d   1      -1.050  -0.895   1.963  0.00  0.00     0.002 A 
ATOM      4  C6  UNL d   1      -0.167  -0.233   2.812  0.00  0.00    -0.004 A 
ATOM      5  C7  UNL d   1       0.957   0.401   2.286  0.00  0.00     0.002 A 
ATOM      6  C8  UNL d   1       1.193   0.383   0.911  0.00  0.00     0.002 A 
ENDROOT
BRANCH   1   7
ATOM      7  C2  UNL d   1       0.549  -0.267  -1.445  0.00  0.00     0.056 C 
BRANCH   7   8
ATOM      8  C1  UNL d   1       1.240  -1.531  -1.966  0.00  0.00     0.007 C 
ATOM      9  C   UNL d   1       0.532  -2.152  -3.163  0.00  0.00     0.009 C 
ENDBRANCH   7   8
ENDBRANCH   1   7
TORSDOF 2
ENDMDL
