MODEL 1
REMARK minimizedAffinity -6.42304659
REMARK minimizedRMSD -1
REMARK  2 active torsions:
REMARK  status: ('A' for Active; 'I' for Inactive)
REMARK    1  A    between atoms: C1_2  and  C2_3 
REMARK    2  A    between atoms: C2_3  and  C3_4 
ROOT
ATOM      1  C3  UNL d   1      -0.058   0.009   0.859  0.00  0.00    -0.075 A 
ATOM      2  C4  UNL d   1      -1.430   0.218   0.652  0.00  0.00     0.002 A 
ATOM      3  C5  UNL d   1      -2.314   0.230   1.731  0.00  0.00     0.002 A 
ATOM      4  C6  UNL d   1      -1.843   0.024   3.025  0.00  0.00    -0.004 A 
ATOM      5  C7  UNL d   1      -0.485  -0.202   3.240  0.00  0.00     0.002 A 
ATOM      6  C8  UNL d   1       0.404  -0.210   2.163  0.00  0.00     0.002 A 
ENDROOT
BRANCH   1   7
ATOM      7  C2  UNL d   1       0.909   0.023  -0.301  0.00  0.00     0.056 C 
BRANCH   7   8
ATOM      8  C1  UNL d   1       0.422   0.832  -1.509  0.00  0.00     0.007 C 
ATOM      9  C   UNL d   1       0.991   0.337  -2.831  0.00  0.00     0.009 C 
ENDBRANCH   7   8
ENDBRANCH   1   7
TORSDOF 2
ENDMDL
