MODEL 1
REMARK minimizedAffinity -1.31382978
REMARK minimizedRMSD -1
REMARK  2 active torsions:
REMARK  status: ('A' for Active; 'I' for Inactive)
REMARK    1  A    between atoms: C1_2  and  C2_3 
REMARK    2  A    between atoms: C2_3  and  C3_4 
ROOT
ATOM      1  C3  UNL d   1      -0.279  -0.225   1.863  0.00  0.00    -0.075 A 
ATOM      2  C4  UNL d   1       1.058   0.041   1.533  0.00  0.00     0.002 A 
ATOM      3  C5  UNL d   1       1.422   0.304   0.213  0.00  0.00     0.002 A 
ATOM      4  C6  UNL d   1       0.460   0.295  -0.794  0.00  0.00    -0.004 A 
ATOM      5  C7  UNL d   1      -0.869   0.016  -0.481  0.00  0.00     0.002 A 
ATOM      6  C8  UNL d   1      -1.237  -0.244   0.841  0.00  0.00     0.002 A 
ENDROOT
BRANCH   1   7
ATOM      7  C2  UNL d   1      -0.685  -0.482   3.295  0.00  0.00     0.056 C 
BRANCH   7   8
ATOM      8  C1  UNL d   1      -1.403   0.697   3.960  0.00  0.00     0.007 C 
ATOM      9  C   UNL d   1      -0.645   2.012   3.831  0.00  0.00     0.009 C 
ENDBRANCH   7   8
ENDBRANCH   1   7
TORSDOF 2
ENDMDL
