MODEL 1
REMARK minimizedAffinity -3.94085717
REMARK minimizedRMSD -1
REMARK  2 active torsions:
REMARK  status: ('A' for Active; 'I' for Inactive)
REMARK    1  A    between atoms: C1_2  and  C2_3 
REMARK    2  A    between atoms: C2_3  and  C3_4 
ROOT
ATOM      1  C3  UNL d   1      -0.636   0.071   0.813  0.00  0.00    -0.075 A 
ATOM      2  C4  UNL d   1      -1.787   0.120   1.613  0.00  0.00     0.002 A 
ATOM      3  C5  UNL d   1      -1.682   0.226   3.000  0.00  0.00     0.002 A 
ATOM      4  C6  UNL d   1      -0.428   0.275   3.605  0.00  0.00    -0.004 A 
ATOM      5  C7  UNL d   1       0.722   0.210   2.822  0.00  0.00     0.002 A 
ATOM      6  C8  UNL d   1       0.620   0.109   1.433  0.00  0.00     0.002 A 
ENDROOT
BRANCH   1   7
ATOM      7  C2  UNL d   1      -0.744  -0.014  -0.690  0.00  0.00     0.056 C 
BRANCH   7   8
ATOM      8  C1  UNL d   1       0.530   0.407  -1.431  0.00  0.00     0.007 C 
ATOM      9  C   UNL d   1       0.769  -0.384  -2.711  0.00  0.00     0.009 C 
ENDBRANCH   7   8
ENDBRANCH   1   7
TORSDOF 2
ENDMDL
