MODEL 1
REMARK minimizedAffinity -5.40633392
REMARK minimizedRMSD -1
REMARK  2 active torsions:
REMARK  status: ('A' for Active; 'I' for Inactive)
REMARK    1  A    between atoms: C1_2  and  C2_3 
REMARK    2  A    between atoms: C2_3  and  C3_4 
ROOT
ATOM      1  C3  UNL d   1       0.116  -0.245   0.096  0.00  0.00    -0.075 A 
ATOM      2  C4  UNL d   1      -0.955  -0.960   0.651  0.00  0.00     0.002 A 
ATOM      3  C5  UNL d   1      -1.013  -1.196   2.025  0.00  0.00     0.002 A 
ATOM      4  C6  UNL d   1       0.001  -0.731   2.858  0.00  0.00    -0.004 A 
ATOM      5  C7  UNL d   1       1.079  -0.034   2.316  0.00  0.00     0.002 A 
ATOM      6  C8  UNL d   1       1.137   0.208   0.943  0.00  0.00     0.002 A 
ENDROOT
BRANCH   1   7
ATOM      7  C2  UNL d   1       0.171   0.040  -1.386  0.00  0.00     0.056 C 
BRANCH   7   8
ATOM      8  C1  UNL d   1       1.301  -0.689  -2.120  0.00  0.00     0.007 C 
ATOM      9  C   UNL d   1       0.800  -1.647  -3.193  0.00  0.00     0.009 C 
ENDBRANCH   7   8
ENDBRANCH   1   7
TORSDOF 2
ENDMDL
