MODEL 1
REMARK minimizedAffinity 6.7492981
REMARK minimizedRMSD -1
REMARK  0 active torsions:
REMARK  status: ('A' for Active; 'I' for Inactive)
ROOT
ATOM      1  O1  BZF d   1       0.142   1.488  -1.453  0.00  0.00    -0.204 OA
ATOM      2  C2  BZF d   1      -0.282   2.803  -1.466  0.00  0.00     0.174 A 
ATOM      3  C3  BZF d   1      -1.590   2.881  -1.786  0.00  0.00    -0.012 A 
ATOM      4  C3A BZF d   1      -2.031   1.524  -1.896  0.00  0.00    -0.107 A 
ATOM      5  C4  BZF d   1      -3.238   0.949  -2.178  0.00  0.00     0.055 A 
ATOM      6  C5  BZF d   1      -3.317  -0.403  -2.281  0.00  0.00    -0.016 A 
ATOM      7  C6  BZF d   1      -2.211  -1.210  -2.114  0.00  0.00     0.022 A 
ATOM      8  C7  BZF d   1      -0.994  -0.686  -1.828  0.00  0.00     0.029 A 
ATOM      9  C7A BZF d   1      -0.917   0.678  -1.691  0.00  0.00     0.058 A 
ENDROOT
TORSDOF 0
ENDMDL
