MODEL 1
REMARK minimizedAffinity 14.8894062
REMARK minimizedRMSD -1
REMARK  0 active torsions:
REMARK  status: ('A' for Active; 'I' for Inactive)
ROOT
ATOM      1  O1  BZF d   1       0.120   1.747  -1.046  0.00  0.00    -0.204 OA
ATOM      2  C2  BZF d   1      -0.503   2.724  -0.295  0.00  0.00     0.174 A 
ATOM      3  C3  BZF d   1      -1.710   2.302   0.133  0.00  0.00    -0.012 A 
ATOM      4  C3A BZF d   1      -1.811   0.944  -0.305  0.00  0.00    -0.107 A 
ATOM      5  C4  BZF d   1      -2.772  -0.017  -0.171  0.00  0.00     0.055 A 
ATOM      6  C5  BZF d   1      -2.594  -1.219  -0.780  0.00  0.00    -0.016 A 
ATOM      7  C6  BZF d   1      -1.471  -1.491  -1.534  0.00  0.00     0.022 A 
ATOM      8  C7  BZF d   1      -0.489  -0.572  -1.692  0.00  0.00     0.029 A 
ATOM      9  C7A BZF d   1      -0.650   0.632  -1.050  0.00  0.00     0.058 A 
ENDROOT
TORSDOF 0
ENDMDL
