MODEL 1
REMARK minimizedAffinity 10.9367914
REMARK minimizedRMSD -1
REMARK  0 active torsions:
REMARK  status: ('A' for Active; 'I' for Inactive)
ROOT
ATOM      1  O1  BZF d   1      -0.422   0.068   4.496  0.00  0.00    -0.204 OA
ATOM      2  C2  BZF d   1      -0.394  -1.244   4.927  0.00  0.00     0.174 A 
ATOM      3  C3  BZF d   1       0.234  -2.029   4.028  0.00  0.00    -0.012 A 
ATOM      4  C3A BZF d   1       0.702  -1.138   3.011  0.00  0.00    -0.107 A 
ATOM      5  C4  BZF d   1       1.412  -1.318   1.859  0.00  0.00     0.055 A 
ATOM      6  C5  BZF d   1       1.643  -0.250   1.051  0.00  0.00    -0.016 A 
ATOM      7  C6  BZF d   1       1.175   1.010   1.363  0.00  0.00     0.022 A 
ATOM      8  C7  BZF d   1       0.471   1.239   2.498  0.00  0.00     0.029 A 
ATOM      9  C7A BZF d   1       0.264   0.168   3.332  0.00  0.00     0.058 A 
ENDROOT
TORSDOF 0
ENDMDL
