MODEL 1
REMARK minimizedAffinity 0.174824029
REMARK minimizedRMSD -1
REMARK  0 active torsions:
REMARK  status: ('A' for Active; 'I' for Inactive)
ROOT
ATOM      1  O1  BZF d   1       4.255  -5.314  -3.183  0.00  0.00    -0.204 OA
ATOM      2  C2  BZF d   1       3.309  -4.822  -4.061  0.00  0.00     0.174 A 
ATOM      3  C3  BZF d   1       2.905  -3.591  -3.689  0.00  0.00    -0.012 A 
ATOM      4  C3A BZF d   1       3.711  -3.257  -2.556  0.00  0.00    -0.107 A 
ATOM      5  C4  BZF d   1       3.790  -2.156  -1.751  0.00  0.00     0.055 A 
ATOM      6  C5  BZF d   1       4.632  -2.176  -0.685  0.00  0.00    -0.016 A 
ATOM      7  C6  BZF d   1       5.405  -3.280  -0.391  0.00  0.00     0.022 A 
ATOM      8  C7  BZF d   1       5.365  -4.394  -1.163  0.00  0.00     0.029 A 
ATOM      9  C7A BZF d   1       4.539  -4.364  -2.260  0.00  0.00     0.058 A 
ENDROOT
TORSDOF 0
ENDMDL
