MODEL 1
REMARK minimizedAffinity 1.51202214
REMARK minimizedRMSD -1
REMARK  0 active torsions:
REMARK  status: ('A' for Active; 'I' for Inactive)
ROOT
ATOM      1  O1  BZF d   1       3.243  -2.884  -3.054  0.00  0.00    -0.204 OA
ATOM      2  C2  BZF d   1       4.340  -2.245  -3.600  0.00  0.00     0.174 A 
ATOM      3  C3  BZF d   1       5.480  -2.880  -3.260  0.00  0.00    -0.012 A 
ATOM      4  C3A BZF d   1       5.064  -4.036  -2.528  0.00  0.00    -0.107 A 
ATOM      5  C4  BZF d   1       5.738  -5.068  -1.940  0.00  0.00     0.055 A 
ATOM      6  C5  BZF d   1       5.039  -6.000  -1.240  0.00  0.00    -0.016 A 
ATOM      7  C6  BZF d   1       3.668  -5.928  -1.104  0.00  0.00     0.022 A 
ATOM      8  C7  BZF d   1       2.956  -4.926  -1.674  0.00  0.00     0.029 A 
ATOM      9  C7A BZF d   1       3.655  -4.001  -2.409  0.00  0.00     0.058 A 
ENDROOT
TORSDOF 0
ENDMDL
