MODEL 1
REMARK minimizedAffinity 3.41228342
REMARK minimizedRMSD -1
REMARK  0 active torsions:
REMARK  status: ('A' for Active; 'I' for Inactive)
ROOT
ATOM      1  O1  BZF d   1       3.065  -1.703  -3.418  0.00  0.00    -0.204 OA
ATOM      2  C2  BZF d   1       4.062  -1.291  -4.280  0.00  0.00     0.174 A 
ATOM      3  C3  BZF d   1       5.280  -1.546  -3.760  0.00  0.00    -0.012 A 
ATOM      4  C3A BZF d   1       5.028  -2.239  -2.534  0.00  0.00    -0.107 A 
ATOM      5  C4  BZF d   1       5.838  -2.770  -1.572  0.00  0.00     0.055 A 
ATOM      6  C5  BZF d   1       5.276  -3.317  -0.462  0.00  0.00    -0.016 A 
ATOM      7  C6  BZF d   1       3.909  -3.344  -0.279  0.00  0.00     0.022 A 
ATOM      8  C7  BZF d   1       3.064  -2.835  -1.208  0.00  0.00     0.029 A 
ATOM      9  C7A BZF d   1       3.628  -2.311  -2.346  0.00  0.00     0.058 A 
ENDROOT
TORSDOF 0
ENDMDL
