MODEL 1
REMARK minimizedAffinity 2.83891582
REMARK minimizedRMSD -1
REMARK  0 active torsions:
REMARK  status: ('A' for Active; 'I' for Inactive)
ROOT
ATOM      1  O1  BZF d   1       3.929  -2.171  -1.925  0.00  0.00    -0.204 OA
ATOM      2  C2  BZF d   1       3.920  -1.592  -3.179  0.00  0.00     0.174 A 
ATOM      3  C3  BZF d   1       4.226  -2.500  -4.128  0.00  0.00    -0.012 A 
ATOM      4  C3A BZF d   1       4.350  -3.744  -3.432  0.00  0.00    -0.107 A 
ATOM      5  C4  BZF d   1       4.626  -5.020  -3.832  0.00  0.00     0.055 A 
ATOM      6  C5  BZF d   1       4.746  -5.995  -2.893  0.00  0.00    -0.016 A 
ATOM      7  C6  BZF d   1       4.601  -5.729  -1.547  0.00  0.00     0.022 A 
ATOM      8  C7  BZF d   1       4.322  -4.480  -1.103  0.00  0.00     0.029 A 
ATOM      9  C7A BZF d   1       4.167  -3.499  -2.052  0.00  0.00     0.058 A 
ENDROOT
TORSDOF 0
ENDMDL
