MODEL 1
REMARK minimizedAffinity 8.70196342
REMARK minimizedRMSD -1
REMARK  0 active torsions:
REMARK  status: ('A' for Active; 'I' for Inactive)
ROOT
ATOM      1  O1  BZF d   1      -1.495   3.802  -1.960  0.00  0.00    -0.204 OA
ATOM      2  C2  BZF d   1      -0.365   4.092  -1.220  0.00  0.00     0.174 A 
ATOM      3  C3  BZF d   1      -0.013   3.040  -0.452  0.00  0.00    -0.012 A 
ATOM      4  C3A BZF d   1      -0.931   1.998  -0.798  0.00  0.00    -0.107 A 
ATOM      5  C4  BZF d   1      -1.082   0.705  -0.385  0.00  0.00     0.055 A 
ATOM      6  C5  BZF d   1      -2.123  -0.024  -0.866  0.00  0.00    -0.016 A 
ATOM      7  C6  BZF d   1      -3.034   0.509  -1.755  0.00  0.00     0.022 A 
ATOM      8  C7  BZF d   1      -2.922   1.785  -2.198  0.00  0.00     0.029 A 
ATOM      9  C7A BZF d   1      -1.852   2.514  -1.739  0.00  0.00     0.058 A 
ENDROOT
TORSDOF 0
ENDMDL
