MODEL 1
REMARK minimizedAffinity 10.6106863
REMARK minimizedRMSD -1
REMARK  0 active torsions:
REMARK  status: ('A' for Active; 'I' for Inactive)
ROOT
ATOM      1  O1  BZF d   1      -1.426   3.149  -1.960  0.00  0.00    -0.204 OA
ATOM      2  C2  BZF d   1      -0.414   2.977  -1.036  0.00  0.00     0.174 A 
ATOM      3  C3  BZF d   1      -0.677   1.931  -0.226  0.00  0.00    -0.012 A 
ATOM      4  C3A BZF d   1      -1.888   1.360  -0.731  0.00  0.00    -0.107 A 
ATOM      5  C4  BZF d   1      -2.647   0.287  -0.360  0.00  0.00     0.055 A 
ATOM      6  C5  BZF d   1      -3.811   0.043  -1.016  0.00  0.00    -0.016 A 
ATOM      7  C6  BZF d   1      -4.249   0.852  -2.044  0.00  0.00     0.022 A 
ATOM      8  C7  BZF d   1      -3.528   1.924  -2.452  0.00  0.00     0.029 A 
ATOM      9  C7A BZF d   1      -2.335   2.155  -1.812  0.00  0.00     0.058 A 
ENDROOT
TORSDOF 0
ENDMDL
