MODEL 1
REMARK minimizedAffinity 17.2639694
REMARK minimizedRMSD -1
REMARK  3 active torsions:
REMARK  status: ('A' for Active; 'I' for Inactive)
REMARK    1  A    between atoms: C3'_2  and  C2'_3 
REMARK    2  A    between atoms: C2'_3  and  C1'_4 
REMARK    3  A    between atoms: C1'_4  and  C1_5 
ROOT
ATOM      1  C1  N4B d   1       2.633  -5.675  -1.886  0.00  0.00    -0.075 A 
ATOM      2  C2  N4B d   1       3.741  -6.000  -1.073  0.00  0.00     0.002 A 
ATOM      3  C3  N4B d   1       5.016  -5.758  -1.521  0.00  0.00     0.002 A 
ATOM      4  C4  N4B d   1       5.208  -5.211  -2.781  0.00  0.00    -0.004 A 
ATOM      5  C5  N4B d   1       4.132  -4.877  -3.550  0.00  0.00     0.002 A 
ATOM      6  C6  N4B d   1       2.845  -5.111  -3.111  0.00  0.00     0.002 A 
ENDROOT
BRANCH   1   7
ATOM      7  C1' N4B d   1       1.223  -6.000  -1.475  0.00  0.00     0.057 C 
BRANCH   7   8
ATOM      8  C2' N4B d   1       0.383  -4.727  -1.517  0.00  0.00     0.009 C 
BRANCH   8   9
ATOM      9  C3' N4B d   1       0.771  -3.753  -0.418  0.00  0.00     0.004 C 
ATOM     10  C4' N4B d   1       0.343  -2.346  -0.711  0.00  0.00     0.003 C 
ENDBRANCH   8   9
ENDBRANCH   7   8
ENDBRANCH   1   7
TORSDOF 3
ENDMDL
