MODEL 1
REMARK minimizedAffinity 13.4035673
REMARK minimizedRMSD -1
REMARK  3 active torsions:
REMARK  status: ('A' for Active; 'I' for Inactive)
REMARK    1  A    between atoms: C3'_2  and  C2'_3 
REMARK    2  A    between atoms: C2'_3  and  C1'_4 
REMARK    3  A    between atoms: C1'_4  and  C1_5 
ROOT
ATOM      1  C1  N4B d   1       3.522  -5.644  -2.348  0.00  0.00    -0.075 A 
ATOM      2  C2  N4B d   1       2.987  -5.989  -3.609  0.00  0.00     0.002 A 
ATOM      3  C3  N4B d   1       3.617  -5.579  -4.758  0.00  0.00     0.002 A 
ATOM      4  C4  N4B d   1       4.769  -4.811  -4.672  0.00  0.00    -0.004 A 
ATOM      5  C5  N4B d   1       5.293  -4.504  -3.450  0.00  0.00     0.002 A 
ATOM      6  C6  N4B d   1       4.672  -4.913  -2.287  0.00  0.00     0.002 A 
ENDROOT
BRANCH   1   7
ATOM      7  C1' N4B d   1       2.820  -5.997  -1.065  0.00  0.00     0.057 C 
BRANCH   7   8
ATOM      8  C2' N4B d   1       1.312  -5.932  -1.284  0.00  0.00     0.009 C 
BRANCH   8   9
ATOM      9  C3' N4B d   1       0.740  -4.576  -0.909  0.00  0.00     0.004 C 
ATOM     10  C4' N4B d   1      -0.506  -4.240  -1.672  0.00  0.00     0.003 C 
ENDBRANCH   8   9
ENDBRANCH   7   8
ENDBRANCH   1   7
TORSDOF 3
ENDMDL
