MODEL 1
REMARK minimizedAffinity -5.33578491
REMARK minimizedRMSD -1
REMARK  1 active torsions:
REMARK  status: ('A' for Active; 'I' for Inactive)
REMARK    1  A    between atoms: N_2  and  C1_3 
ROOT
ATOM      1  C1  UNL d   1      -2.697  -0.593  -3.996  0.00  0.00     0.143 A 
ATOM      2  C2  UNL d   1      -2.585  -1.924  -4.412  0.00  0.00    -0.057 A 
ATOM      3  C3  UNL d   1      -3.416  -2.445  -5.411  0.00  0.00     0.033 A 
ATOM      4  C4  UNL d   1      -4.396  -1.649  -5.995  0.00  0.00    -0.042 A 
ATOM      5  C5  UNL d   1      -4.542  -0.330  -5.580  0.00  0.00     0.033 A 
ATOM      6  C6  UNL d   1      -3.705   0.186  -4.586  0.00  0.00    -0.057 A 
ENDROOT
BRANCH   1   7
ATOM      7  N   UNL d   1      -1.967  -0.044  -2.939  0.00  0.00    -0.732 N 
ATOM      8  C   UNL d   1      -2.371   1.208  -2.337  0.00  0.00     0.284 C 
ATOM      9  H3  UNL d   1      -1.663  -0.748  -2.271  0.00  0.00     0.395 HD
ENDBRANCH   1   7
TORSDOF 1
ENDMDL
