MODEL 1
REMARK minimizedAffinity 1.99204886
REMARK minimizedRMSD -1
REMARK  1 active torsions:
REMARK  status: ('A' for Active; 'I' for Inactive)
REMARK    1  A    between atoms: N_2  and  C1_3 
ROOT
ATOM      1  C1  UNL d   1      -3.689  -0.751  -3.745  0.00  0.00     0.143 A 
ATOM      2  C2  UNL d   1      -4.907  -0.066  -3.808  0.00  0.00    -0.057 A 
ATOM      3  C3  UNL d   1      -5.252   0.698  -4.929  0.00  0.00     0.033 A 
ATOM      4  C4  UNL d   1      -4.370   0.815  -5.998  0.00  0.00    -0.042 A 
ATOM      5  C5  UNL d   1      -3.143   0.162  -5.946  0.00  0.00     0.033 A 
ATOM      6  C6  UNL d   1      -2.807  -0.605  -4.827  0.00  0.00    -0.057 A 
ENDROOT
BRANCH   1   7
ATOM      7  N   UNL d   1      -3.245  -1.447  -2.617  0.00  0.00    -0.732 N 
ATOM      8  C   UNL d   1      -2.752  -0.734  -1.458  0.00  0.00     0.284 C 
ATOM      9  H3  UNL d   1      -3.838  -2.243  -2.394  0.00  0.00     0.395 HD
ENDBRANCH   1   7
TORSDOF 1
ENDMDL
