MODEL 1
REMARK minimizedAffinity 5.4841733
REMARK minimizedRMSD -1
REMARK  1 active torsions:
REMARK  status: ('A' for Active; 'I' for Inactive)
REMARK    1  A    between atoms: N_2  and  C1_3 
ROOT
ATOM      1  C1  UNL d   1       4.138  -4.926   0.861  0.00  0.00     0.143 A 
ATOM      2  C2  UNL d   1       2.795  -5.064   0.495  0.00  0.00    -0.057 A 
ATOM      3  C3  UNL d   1       1.872  -4.034   0.714  0.00  0.00     0.033 A 
ATOM      4  C4  UNL d   1       2.273  -2.854   1.332  0.00  0.00    -0.042 A 
ATOM      5  C5  UNL d   1       3.597  -2.704   1.727  0.00  0.00     0.033 A 
ATOM      6  C6  UNL d   1       4.515  -3.734   1.500  0.00  0.00    -0.057 A 
ENDROOT
BRANCH   1   7
ATOM      7  N   UNL d   1       5.081  -5.951   0.760  0.00  0.00    -0.732 N 
ATOM      8  C   UNL d   1       6.000  -6.000  -0.357  0.00  0.00     0.284 C 
ATOM      9  H3  UNL d   1       5.505  -6.179   1.657  0.00  0.00     0.395 HD
ENDBRANCH   1   7
TORSDOF 1
ENDMDL
