MODEL 1
REMARK minimizedAffinity 8.07261562
REMARK minimizedRMSD -1
REMARK  0 active torsions:
REMARK  status: ('A' for Active; 'I' for Inactive)
ROOT
ATOM      1  C   UNL d   1      -5.735  -1.282  -4.089  0.00  0.00     0.020 A 
ATOM      2  C1  UNL d   1      -5.034  -2.476  -3.925  0.00  0.00     0.020 A 
ATOM      3  C2  UNL d   1      -4.047  -2.577  -2.943  0.00  0.00     0.034 A 
ATOM      4  C3  UNL d   1      -3.758  -1.483  -2.120  0.00  0.00     0.017 A 
ATOM      5  C4  UNL d   1      -4.462  -0.285  -2.284  0.00  0.00     0.017 A 
ATOM      6  C5  UNL d   1      -5.450  -0.189  -3.270  0.00  0.00     0.034 A 
ATOM      7 Cl   UNL d   1      -4.162   1.109  -1.307  0.00  0.00    -0.070 Cl
ATOM      8 Cl1  UNL d   1      -2.525  -1.680  -0.925  0.00  0.00    -0.070 Cl
ENDROOT
TORSDOF 0
ENDMDL
