MODEL 1
REMARK minimizedAffinity 6.51202393
REMARK minimizedRMSD -1
REMARK  0 active torsions:
REMARK  status: ('A' for Active; 'I' for Inactive)
ROOT
ATOM      1  C   UNL d   1      -2.239   5.253  -5.826  0.00  0.00     0.020 A 
ATOM      2  C1  UNL d   1      -1.410   4.134  -5.764  0.00  0.00     0.020 A 
ATOM      3  C2  UNL d   1      -1.958   2.871  -5.527  0.00  0.00     0.034 A 
ATOM      4  C3  UNL d   1      -3.338   2.725  -5.351  0.00  0.00     0.017 A 
ATOM      5  C4  UNL d   1      -4.170   3.849  -5.414  0.00  0.00     0.017 A 
ATOM      6  C5  UNL d   1      -3.616   5.111  -5.651  0.00  0.00     0.034 A 
ATOM      7 Cl   UNL d   1      -5.883   3.748  -5.207  0.00  0.00    -0.070 Cl
ATOM      8 Cl1  UNL d   1      -3.948   1.134  -5.062  0.00  0.00    -0.070 Cl
ENDROOT
TORSDOF 0
ENDMDL
