MODEL 1
REMARK minimizedAffinity 11.6500015
REMARK minimizedRMSD -1
REMARK  0 active torsions:
REMARK  status: ('A' for Active; 'I' for Inactive)
ROOT
ATOM      1  C   UNL d   1       4.841   0.221  -3.572  0.00  0.00     0.020 A 
ATOM      2  C1  UNL d   1       5.469   0.055  -2.338  0.00  0.00     0.020 A 
ATOM      3  C2  UNL d   1       4.776   0.336  -1.159  0.00  0.00     0.034 A 
ATOM      4  C3  UNL d   1       3.451   0.785  -1.210  0.00  0.00     0.017 A 
ATOM      5  C4  UNL d   1       2.821   0.951  -2.449  0.00  0.00     0.017 A 
ATOM      6  C5  UNL d   1       3.520   0.668  -3.627  0.00  0.00     0.034 A 
ATOM      7 Cl   UNL d   1       1.189   1.500  -2.593  0.00  0.00    -0.070 Cl
ATOM      8 Cl1  UNL d   1       2.655   1.113   0.288  0.00  0.00    -0.070 Cl
ENDROOT
TORSDOF 0
ENDMDL
