MODEL 1
REMARK minimizedAffinity 5.66208649
REMARK minimizedRMSD -1
REMARK  0 active torsions:
REMARK  status: ('A' for Active; 'I' for Inactive)
ROOT
ATOM      1  C   UNL d   1       2.006  -2.819   1.808  0.00  0.00     0.020 A 
ATOM      2  C1  UNL d   1       0.792  -3.405   1.451  0.00  0.00     0.020 A 
ATOM      3  C2  UNL d   1      -0.410  -2.794   1.813  0.00  0.00     0.034 A 
ATOM      4  C3  UNL d   1      -0.402  -1.595   2.534  0.00  0.00     0.017 A 
ATOM      5  C4  UNL d   1       0.817  -1.007   2.892  0.00  0.00     0.017 A 
ATOM      6  C5  UNL d   1       2.018  -1.623   2.527  0.00  0.00     0.034 A 
ATOM      7 Cl   UNL d   1       0.908   0.472   3.780  0.00  0.00    -0.070 Cl
ATOM      8 Cl1  UNL d   1      -1.927  -0.895   2.947  0.00  0.00    -0.070 Cl
ENDROOT
TORSDOF 0
ENDMDL
