MODEL 1
REMARK minimizedAffinity 7.39210796
REMARK minimizedRMSD -1
REMARK  0 active torsions:
REMARK  status: ('A' for Active; 'I' for Inactive)
ROOT
ATOM      1  C   UNL d   1       5.579  -5.327  -0.055  0.00  0.00     0.020 A 
ATOM      2  C1  UNL d   1       4.263  -5.734   0.159  0.00  0.00     0.020 A 
ATOM      3  C2  UNL d   1       3.367  -4.885   0.811  0.00  0.00     0.034 A 
ATOM      4  C3  UNL d   1       3.785  -3.624   1.251  0.00  0.00     0.017 A 
ATOM      5  C4  UNL d   1       5.107  -3.216   1.036  0.00  0.00     0.017 A 
ATOM      6  C5  UNL d   1       6.000  -4.070   0.382  0.00  0.00     0.034 A 
ATOM      7 Cl   UNL d   1       5.696  -1.675   1.550  0.00  0.00    -0.070 Cl
ATOM      8 Cl1  UNL d   1       2.623  -2.625   2.050  0.00  0.00    -0.070 Cl
ENDROOT
TORSDOF 0
ENDMDL
