MODEL 1
REMARK minimizedAffinity 10.8571835
REMARK minimizedRMSD -1
REMARK  0 active torsions:
REMARK  status: ('A' for Active; 'I' for Inactive)
ROOT
ATOM      1  C   UNL d   1       2.469   1.118  -0.381  0.00  0.00     0.020 A 
ATOM      2  C1  UNL d   1       1.733   1.244  -1.558  0.00  0.00     0.020 A 
ATOM      3  C2  UNL d   1       0.643   0.404  -1.794  0.00  0.00     0.034 A 
ATOM      4  C3  UNL d   1       0.286  -0.567  -0.851  0.00  0.00     0.017 A 
ATOM      5  C4  UNL d   1       1.026  -0.694   0.330  0.00  0.00     0.017 A 
ATOM      6  C5  UNL d   1       2.116   0.151   0.561  0.00  0.00     0.034 A 
ATOM      7 Cl   UNL d   1       0.646  -1.868   1.540  0.00  0.00    -0.070 Cl
ATOM      8 Cl1  UNL d   1      -1.074  -1.572  -1.208  0.00  0.00    -0.070 Cl
ENDROOT
TORSDOF 0
ENDMDL
