MODEL 1
REMARK minimizedAffinity 11.1127043
REMARK minimizedRMSD -1
REMARK  0 active torsions:
REMARK  status: ('A' for Active; 'I' for Inactive)
ROOT
ATOM      1  C   UNL d   1      -3.767  -0.764  -5.997  0.00  0.00     0.020 A 
ATOM      2  C1  UNL d   1      -3.442   0.502  -5.511  0.00  0.00     0.020 A 
ATOM      3  C2  UNL d   1      -3.509   0.762  -4.140  0.00  0.00     0.034 A 
ATOM      4  C3  UNL d   1      -3.902  -0.245  -3.251  0.00  0.00     0.017 A 
ATOM      5  C4  UNL d   1      -4.227  -1.515  -3.740  0.00  0.00     0.017 A 
ATOM      6  C5  UNL d   1      -4.159  -1.770  -5.113  0.00  0.00     0.034 A 
ATOM      7 Cl   UNL d   1      -4.720  -2.808  -2.705  0.00  0.00    -0.070 Cl
ATOM      8 Cl1  UNL d   1      -3.962   0.147  -1.569  0.00  0.00    -0.070 Cl
ENDROOT
TORSDOF 0
ENDMDL
