MODEL 1
REMARK minimizedAffinity 13.8498726
REMARK minimizedRMSD -1
REMARK  0 active torsions:
REMARK  status: ('A' for Active; 'I' for Inactive)
ROOT
ATOM      1  C   UNL d   1      -4.819  -2.445  -3.859  0.00  0.00     0.020 A 
ATOM      2  C1  UNL d   1      -5.459  -1.212  -3.987  0.00  0.00     0.020 A 
ATOM      3  C2  UNL d   1      -5.286  -0.231  -3.008  0.00  0.00     0.034 A 
ATOM      4  C3  UNL d   1      -4.472  -0.481  -1.898  0.00  0.00     0.017 A 
ATOM      5  C4  UNL d   1      -3.830  -1.718  -1.770  0.00  0.00     0.017 A 
ATOM      6  C5  UNL d   1      -4.006  -2.697  -2.753  0.00  0.00     0.034 A 
ATOM      7 Cl   UNL d   1      -2.810  -2.099  -0.428  0.00  0.00    -0.070 Cl
ATOM      8 Cl1  UNL d   1      -4.303   0.778  -0.726  0.00  0.00    -0.070 Cl
ENDROOT
TORSDOF 0
ENDMDL
