MODEL 1
REMARK minimizedAffinity 14.5193281
REMARK minimizedRMSD -1
REMARK  0 active torsions:
REMARK  status: ('A' for Active; 'I' for Inactive)
ROOT
ATOM      1  C   UNL d   1      -4.832  -2.205  -3.735  0.00  0.00     0.020 A 
ATOM      2  C1  UNL d   1      -5.672  -1.101  -3.593  0.00  0.00     0.020 A 
ATOM      3  C2  UNL d   1      -5.312  -0.056  -2.739  0.00  0.00     0.034 A 
ATOM      4  C3  UNL d   1      -4.109  -0.113  -2.025  0.00  0.00     0.017 A 
ATOM      5  C4  UNL d   1      -3.267  -1.221  -2.169  0.00  0.00     0.017 A 
ATOM      6  C5  UNL d   1      -3.633  -2.265  -3.025  0.00  0.00     0.034 A 
ATOM      7 Cl   UNL d   1      -1.768  -1.363  -1.321  0.00  0.00    -0.070 Cl
ATOM      8 Cl1  UNL d   1      -3.727   1.216  -0.988  0.00  0.00    -0.070 Cl
ENDROOT
TORSDOF 0
ENDMDL
