MODEL 1
REMARK minimizedAffinity 1.14521229
REMARK minimizedRMSD -1
REMARK  0 active torsions:
REMARK  status: ('A' for Active; 'I' for Inactive)
ROOT
ATOM      1  N1  IND d   1       0.202  -1.234  -2.025  0.00  0.00    -0.196 N 
ATOM      2  C2  IND d   1      -1.028  -1.156  -1.435  0.00  0.00     0.054 A 
ATOM      3  C3  IND d   1      -0.909  -0.746  -0.152  0.00  0.00    -0.031 A 
ATOM      4  C4  IND d   1       1.197  -0.050   1.154  0.00  0.00     0.051 A 
ATOM      5  C5  IND d   1       2.558   0.012   1.049  0.00  0.00    -0.031 A 
ATOM      6  C6  IND d   1       3.217  -0.344  -0.110  0.00  0.00     0.015 A 
ATOM      7  C7  IND d   1       2.535  -0.765  -1.217  0.00  0.00    -0.016 A 
ATOM      8  C8  IND d   1       1.153  -0.835  -1.112  0.00  0.00    -0.047 A 
ATOM      9  C9  IND d   1       0.482  -0.516   0.076  0.00  0.00    -0.096 A 
ATOM     10  HN1 IND d   1       0.357  -1.489  -2.832  0.00  0.00     0.298 HD
ENDROOT
TORSDOF 0
ENDMDL
