MODEL 1
REMARK minimizedAffinity -4.51621294
REMARK minimizedRMSD -1
REMARK  0 active torsions:
REMARK  status: ('A' for Active; 'I' for Inactive)
ROOT
ATOM      1  N1  IND d   1      -4.946   5.176   0.289  0.00  0.00    -0.196 N 
ATOM      2  C2  IND d   1      -3.750   5.768  -0.008  0.00  0.00     0.054 A 
ATOM      3  C3  IND d   1      -3.020   4.972  -0.820  0.00  0.00    -0.031 A 
ATOM      4  C4  IND d   1      -3.633   2.701  -1.867  0.00  0.00     0.051 A 
ATOM      5  C5  IND d   1      -4.603   1.739  -1.860  0.00  0.00    -0.031 A 
ATOM      6  C6  IND d   1      -5.762   1.877  -1.124  0.00  0.00     0.015 A 
ATOM      7  C7  IND d   1      -6.000   2.993  -0.373  0.00  0.00    -0.016 A 
ATOM      8  C8  IND d   1      -5.014   3.969  -0.371  0.00  0.00    -0.047 A 
ATOM      9  C9  IND d   1      -3.817   3.815  -1.083  0.00  0.00    -0.096 A 
ATOM     10  HN1 IND d   1      -5.554   5.502   0.803  0.00  0.00     0.298 HD
ENDROOT
TORSDOF 0
ENDMDL
