MODEL 1
REMARK minimizedAffinity -2.75679564
REMARK minimizedRMSD -1
REMARK  0 active torsions:
REMARK  status: ('A' for Active; 'I' for Inactive)
ROOT
ATOM      1  N1  IND d   1      -2.415   0.764   2.220  0.00  0.00    -0.196 N 
ATOM      2  C2  IND d   1      -1.249   1.436   1.981  0.00  0.00     0.054 A 
ATOM      3  C3  IND d   1      -0.281   1.013   2.824  0.00  0.00    -0.031 A 
ATOM      4  C4  IND d   1      -0.360  -0.844   4.606  0.00  0.00     0.051 A 
ATOM      5  C5  IND d   1      -1.218  -1.715   5.215  0.00  0.00    -0.031 A 
ATOM      6  C6  IND d   1      -2.545  -1.809   4.848  0.00  0.00     0.015 A 
ATOM      7  C7  IND d   1      -3.063  -1.039   3.846  0.00  0.00    -0.016 A 
ATOM      8  C8  IND d   1      -2.197  -0.148   3.229  0.00  0.00    -0.047 A 
ATOM      9  C9  IND d   1      -0.859  -0.018   3.626  0.00  0.00    -0.096 A 
ATOM     10  HN1 IND d   1      -3.160   0.889   1.809  0.00  0.00     0.298 HD
ENDROOT
TORSDOF 0
ENDMDL
