MODEL 1
REMARK minimizedAffinity 2.97047853
REMARK minimizedRMSD -1
REMARK  0 active torsions:
REMARK  status: ('A' for Active; 'I' for Inactive)
ROOT
ATOM      1  N1  IND d   1       0.258  -2.542  -4.821  0.00  0.00    -0.196 N 
ATOM      2  C2  IND d   1       0.321  -3.287  -5.966  0.00  0.00     0.054 A 
ATOM      3  C3  IND d   1      -0.246  -4.498  -5.771  0.00  0.00    -0.031 A 
ATOM      4  C4  IND d   1      -1.432  -5.432  -3.685  0.00  0.00     0.051 A 
ATOM      5  C5  IND d   1      -1.709  -5.135  -2.380  0.00  0.00    -0.031 A 
ATOM      6  C6  IND d   1      -1.340  -3.933  -1.812  0.00  0.00     0.015 A 
ATOM      7  C7  IND d   1      -0.686  -2.974  -2.533  0.00  0.00    -0.016 A 
ATOM      8  C8  IND d   1      -0.397  -3.275  -3.857  0.00  0.00    -0.047 A 
ATOM      9  C9  IND d   1      -0.732  -4.510  -4.427  0.00  0.00    -0.096 A 
ATOM     10  HN1 IND d   1       0.574  -1.749  -4.721  0.00  0.00     0.298 HD
ENDROOT
TORSDOF 0
ENDMDL
