MODEL 1
REMARK minimizedAffinity 7.29691505
REMARK minimizedRMSD -1
REMARK  0 active torsions:
REMARK  status: ('A' for Active; 'I' for Inactive)
ROOT
ATOM      1  N1  IND d   1      -3.474   1.346  -0.170  0.00  0.00    -0.196 N 
ATOM      2  C2  IND d   1      -4.292   0.300  -0.495  0.00  0.00     0.054 A 
ATOM      3  C3  IND d   1      -4.042  -0.760   0.307  0.00  0.00    -0.031 A 
ATOM      4  C4  IND d   1      -2.404  -0.964   2.283  0.00  0.00     0.051 A 
ATOM      5  C5  IND d   1      -1.416  -0.284   2.938  0.00  0.00    -0.031 A 
ATOM      6  C6  IND d   1      -1.058   1.001   2.585  0.00  0.00     0.015 A 
ATOM      7  C7  IND d   1      -1.686   1.661   1.567  0.00  0.00    -0.016 A 
ATOM      8  C8  IND d   1      -2.685   0.971   0.895  0.00  0.00    -0.047 A 
ATOM      9  C9  IND d   1      -3.023  -0.349   1.220  0.00  0.00    -0.096 A 
ATOM     10  HN1 IND d   1      -3.456   2.110  -0.565  0.00  0.00     0.298 HD
ENDROOT
TORSDOF 0
ENDMDL
