MODEL 1
REMARK minimizedAffinity 9.41410923
REMARK minimizedRMSD -1
REMARK  0 active torsions:
REMARK  status: ('A' for Active; 'I' for Inactive)
ROOT
ATOM      1  N1  IND d   1      -4.487   0.341  -0.648  0.00  0.00    -0.196 N 
ATOM      2  C2  IND d   1      -5.072   1.575  -0.716  0.00  0.00     0.054 A 
ATOM      3  C3  IND d   1      -4.465   2.431   0.136  0.00  0.00    -0.031 A 
ATOM      4  C4  IND d   1      -2.427   2.050   1.662  0.00  0.00     0.051 A 
ATOM      5  C5  IND d   1      -1.573   1.074   2.095  0.00  0.00    -0.031 A 
ATOM      6  C6  IND d   1      -1.646  -0.220   1.623  0.00  0.00     0.015 A 
ATOM      7  C7  IND d   1      -2.573  -0.587   0.689  0.00  0.00    -0.016 A 
ATOM      8  C8  IND d   1      -3.447   0.399   0.254  0.00  0.00    -0.047 A 
ATOM      9  C9  IND d   1      -3.405   1.704   0.760  0.00  0.00    -0.096 A 
ATOM     10  HN1 IND d   1      -4.729  -0.353  -1.093  0.00  0.00     0.298 HD
ENDROOT
TORSDOF 0
ENDMDL
