MODEL 1
REMARK minimizedAffinity 3.45530701
REMARK minimizedRMSD -1
REMARK  0 active torsions:
REMARK  status: ('A' for Active; 'I' for Inactive)
ROOT
ATOM      1  N1  IND d   1       0.957  -1.181  -5.507  0.00  0.00    -0.196 N 
ATOM      2  C2  IND d   1       0.062  -0.166  -5.311  0.00  0.00     0.054 A 
ATOM      3  C3  IND d   1      -1.169  -0.666  -5.061  0.00  0.00    -0.031 A 
ATOM      4  C4  IND d   1      -1.921  -3.117  -4.826  0.00  0.00     0.051 A 
ATOM      5  C5  IND d   1      -1.469  -4.400  -4.956  0.00  0.00    -0.031 A 
ATOM      6  C6  IND d   1      -0.157  -4.681  -5.280  0.00  0.00     0.015 A 
ATOM      7  C7  IND d   1       0.757  -3.685  -5.476  0.00  0.00    -0.016 A 
ATOM      8  C8  IND d   1       0.300  -2.381  -5.352  0.00  0.00    -0.047 A 
ATOM      9  C9  IND d   1      -1.040  -2.089  -5.065  0.00  0.00    -0.096 A 
ATOM     10  HN1 IND d   1       1.791  -1.085  -5.696  0.00  0.00     0.298 HD
ENDROOT
TORSDOF 0
ENDMDL
