MODEL 1
REMARK minimizedAffinity 11.1518335
REMARK minimizedRMSD -1
REMARK  0 active torsions:
REMARK  status: ('A' for Active; 'I' for Inactive)
ROOT
ATOM      1  N1  IND d   1      -4.451  -0.103   3.521  0.00  0.00    -0.196 N 
ATOM      2  C2  IND d   1      -4.163  -1.402   3.834  0.00  0.00     0.054 A 
ATOM      3  C3  IND d   1      -2.943  -1.741   3.360  0.00  0.00    -0.031 A 
ATOM      4  C4  IND d   1      -1.206  -0.292   2.130  0.00  0.00     0.051 A 
ATOM      5  C5  IND d   1      -1.031   0.949   1.585  0.00  0.00    -0.031 A 
ATOM      6  C6  IND d   1      -2.005   1.924   1.662  0.00  0.00     0.015 A 
ATOM      7  C7  IND d   1      -3.192   1.696   2.299  0.00  0.00    -0.016 A 
ATOM      8  C8  IND d   1      -3.376   0.434   2.847  0.00  0.00    -0.047 A 
ATOM      9  C9  IND d   1      -2.409  -0.572   2.735  0.00  0.00    -0.096 A 
ATOM     10  HN1 IND d   1      -5.181   0.309   3.713  0.00  0.00     0.298 HD
ENDROOT
TORSDOF 0
ENDMDL
