MODEL 1
REMARK minimizedAffinity 3.8413136
REMARK minimizedRMSD -1
REMARK  0 active torsions:
REMARK  status: ('A' for Active; 'I' for Inactive)
ROOT
ATOM      1  N1  IND d   1      -0.328  -2.902  -2.199  0.00  0.00    -0.196 N 
ATOM      2  C2  IND d   1      -1.528  -2.418  -1.758  0.00  0.00     0.054 A 
ATOM      3  C3  IND d   1      -2.529  -2.833  -2.568  0.00  0.00    -0.031 A 
ATOM      4  C4  IND d   1      -2.438  -4.393  -4.613  0.00  0.00     0.051 A 
ATOM      5  C5  IND d   1      -1.560  -5.058  -5.422  0.00  0.00    -0.031 A 
ATOM      6  C6  IND d   1      -0.200  -5.041  -5.192  0.00  0.00     0.015 A 
ATOM      7  C7  IND d   1       0.335  -4.363  -4.133  0.00  0.00    -0.016 A 
ATOM      8  C8  IND d   1      -0.553  -3.681  -3.313  0.00  0.00    -0.047 A 
ATOM      9  C9  IND d   1      -1.930  -3.660  -3.566  0.00  0.00    -0.096 A 
ATOM     10  HN1 IND d   1       0.438  -2.746  -1.841  0.00  0.00     0.298 HD
ENDROOT
TORSDOF 0
ENDMDL
