MODEL 1
REMARK minimizedAffinity 4.71890688
REMARK minimizedRMSD -1
REMARK  0 active torsions:
REMARK  status: ('A' for Active; 'I' for Inactive)
ROOT
ATOM      1  C   UNL d   1       3.424   1.689  -0.220  0.00  0.00     0.124 A 
ATOM      2  C1  UNL d   1       2.346   1.735   0.654  0.00  0.00     0.062 A 
ATOM      3  C2  UNL d   1       1.434   0.685   0.695  0.00  0.00     0.162 A 
ATOM      4  C3  UNL d   1       1.595  -0.421  -0.141  0.00  0.00    -0.034 A 
ATOM      5  C4  UNL d   1       2.680  -0.459  -1.018  0.00  0.00     0.162 A 
ATOM      6  C5  UNL d   1       3.589   0.593  -1.055  0.00  0.00     0.062 A 
ATOM      7  F   UNL d   1       4.630   0.548  -1.900  0.00  0.00    -0.097 F 
ATOM      8  F1  UNL d   1       2.865  -1.506  -1.835  0.00  0.00    -0.096 F 
ATOM      9  I   UNL d   1       0.232  -1.993  -0.082  0.00  0.00    -0.060 I 
ATOM     10  F2  UNL d   1       0.402   0.755   1.549  0.00  0.00    -0.096 F 
ATOM     11  F3  UNL d   1       2.184   2.793   1.460  0.00  0.00    -0.097 F 
ATOM     12  F4  UNL d   1       4.300   2.701  -0.258  0.00  0.00    -0.092 F 
ENDROOT
TORSDOF 0
ENDMDL
