MODEL 1
REMARK minimizedAffinity 14.5800476
REMARK minimizedRMSD -1
REMARK  0 active torsions:
REMARK  status: ('A' for Active; 'I' for Inactive)
ROOT
ATOM      1  C   UNL d   1       3.629   1.767   1.659  0.00  0.00     0.124 A 
ATOM      2  C1  UNL d   1       4.172   0.510   1.887  0.00  0.00     0.062 A 
ATOM      3  C2  UNL d   1       3.621  -0.612   1.276  0.00  0.00     0.162 A 
ATOM      4  C3  UNL d   1       2.520  -0.483   0.429  0.00  0.00    -0.034 A 
ATOM      5  C4  UNL d   1       1.979   0.784   0.205  0.00  0.00     0.162 A 
ATOM      6  C5  UNL d   1       2.533   1.903   0.818  0.00  0.00     0.062 A 
ATOM      7  F   UNL d   1       2.007   3.116   0.596  0.00  0.00    -0.097 F 
ATOM      8  F1  UNL d   1       0.921   0.944  -0.604  0.00  0.00    -0.096 F 
ATOM      9  I   UNL d   1       1.693  -2.159  -0.487  0.00  0.00    -0.060 I 
ATOM     10  F2  UNL d   1       4.166  -1.814   1.514  0.00  0.00    -0.096 F 
ATOM     11  F3  UNL d   1       5.230   0.376   2.700  0.00  0.00    -0.097 F 
ATOM     12  F4  UNL d   1       4.161   2.845   2.249  0.00  0.00    -0.092 F 
ENDROOT
TORSDOF 0
ENDMDL
