MODEL 1
REMARK minimizedAffinity 11.6737595
REMARK minimizedRMSD -1
REMARK  0 active torsions:
REMARK  status: ('A' for Active; 'I' for Inactive)
ROOT
ATOM      1  C   UNL d   1       1.719   3.232   0.687  0.00  0.00     0.124 A 
ATOM      2  C1  UNL d   1       3.000   2.716   0.546  0.00  0.00     0.062 A 
ATOM      3  C2  UNL d   1       3.185   1.361   0.288  0.00  0.00     0.162 A 
ATOM      4  C3  UNL d   1       2.085   0.512   0.168  0.00  0.00    -0.034 A 
ATOM      5  C4  UNL d   1       0.800   1.038   0.312  0.00  0.00     0.162 A 
ATOM      6  C5  UNL d   1       0.621   2.393   0.570  0.00  0.00     0.062 A 
ATOM      7  F   UNL d   1      -0.618   2.889   0.705  0.00  0.00    -0.097 F 
ATOM      8  F1  UNL d   1      -0.280   0.249   0.202  0.00  0.00    -0.096 F 
ATOM      9  I   UNL d   1       2.356  -1.515  -0.218  0.00  0.00    -0.060 I 
ATOM     10  F2  UNL d   1       4.434   0.890   0.157  0.00  0.00    -0.096 F 
ATOM     11  F3  UNL d   1       4.064   3.525   0.661  0.00  0.00    -0.097 F 
ATOM     12  F4  UNL d   1       1.545   4.536   0.936  0.00  0.00    -0.092 F 
ENDROOT
TORSDOF 0
ENDMDL
