MODEL 1
REMARK minimizedAffinity 9.73528099
REMARK minimizedRMSD -1
REMARK  0 active torsions:
REMARK  status: ('A' for Active; 'I' for Inactive)
ROOT
ATOM      1  C   UNL d   1       4.100   2.040   0.115  0.00  0.00     0.124 A 
ATOM      2  C1  UNL d   1       2.789   2.057   0.571  0.00  0.00     0.062 A 
ATOM      3  C2  UNL d   1       1.986   0.929   0.436  0.00  0.00     0.162 A 
ATOM      4  C3  UNL d   1       2.492  -0.229  -0.156  0.00  0.00    -0.034 A 
ATOM      5  C4  UNL d   1       3.811  -0.238  -0.613  0.00  0.00     0.162 A 
ATOM      6  C5  UNL d   1       4.610   0.893  -0.476  0.00  0.00     0.062 A 
ATOM      7  F   UNL d   1       5.876   0.874  -0.917  0.00  0.00    -0.097 F 
ATOM      8  F1  UNL d   1       4.330  -1.334  -1.187  0.00  0.00    -0.096 F 
ATOM      9  I   UNL d   1       1.295  -1.919  -0.359  0.00  0.00    -0.060 I 
ATOM     10  F2  UNL d   1       0.723   0.974   0.885  0.00  0.00    -0.096 F 
ATOM     11  F3  UNL d   1       2.293   3.165   1.141  0.00  0.00    -0.097 F 
ATOM     12  F4  UNL d   1       4.870   3.128   0.245  0.00  0.00    -0.092 F 
ENDROOT
TORSDOF 0
ENDMDL
