MODEL 1
REMARK minimizedAffinity 10.9758253
REMARK minimizedRMSD -1
REMARK  0 active torsions:
REMARK  status: ('A' for Active; 'I' for Inactive)
ROOT
ATOM      1  C   UNL d   1       0.840   0.704  -0.850  0.00  0.00     0.124 A 
ATOM      2  C1  UNL d   1       1.326  -0.596  -0.869  0.00  0.00     0.062 A 
ATOM      3  C2  UNL d   1       2.548  -0.894  -0.274  0.00  0.00     0.162 A 
ATOM      4  C3  UNL d   1       3.294   0.109   0.345  0.00  0.00    -0.034 A 
ATOM      5  C4  UNL d   1       2.799   1.414   0.358  0.00  0.00     0.162 A 
ATOM      6  C5  UNL d   1       1.576   1.708  -0.237  0.00  0.00     0.062 A 
ATOM      7  F   UNL d   1       1.108   2.964  -0.219  0.00  0.00    -0.097 F 
ATOM      8  F1  UNL d   1       3.489   2.403   0.945  0.00  0.00    -0.096 F 
ATOM      9  I   UNL d   1       5.122  -0.333   1.234  0.00  0.00    -0.060 I 
ATOM     10  F2  UNL d   1       2.994  -2.159  -0.307  0.00  0.00    -0.096 F 
ATOM     11  F3  UNL d   1       0.616  -1.567  -1.461  0.00  0.00    -0.097 F 
ATOM     12  F4  UNL d   1      -0.337   0.989  -1.424  0.00  0.00    -0.092 F 
ENDROOT
TORSDOF 0
ENDMDL
