MODEL 1
REMARK minimizedAffinity 13.8685837
REMARK minimizedRMSD -1
REMARK  0 active torsions:
REMARK  status: ('A' for Active; 'I' for Inactive)
ROOT
ATOM      1  C   UNL d   1      -0.088   2.350   1.373  0.00  0.00     0.124 A 
ATOM      2  C1  UNL d   1      -0.063   1.368   2.354  0.00  0.00     0.062 A 
ATOM      3  C2  UNL d   1       1.014   0.491   2.439  0.00  0.00     0.162 A 
ATOM      4  C3  UNL d   1       2.077   0.592   1.542  0.00  0.00    -0.034 A 
ATOM      5  C4  UNL d   1       2.045   1.582   0.558  0.00  0.00     0.162 A 
ATOM      6  C5  UNL d   1       0.966   2.456   0.476  0.00  0.00     0.062 A 
ATOM      7  F   UNL d   1       0.944   3.404  -0.472  0.00  0.00    -0.097 F 
ATOM      8  F1  UNL d   1       3.051   1.707  -0.321  0.00  0.00    -0.096 F 
ATOM      9  I   UNL d   1       3.690  -0.718   1.667  0.00  0.00    -0.060 I 
ATOM     10  F2  UNL d   1       1.011  -0.448   3.397  0.00  0.00    -0.096 F 
ATOM     11  F3  UNL d   1      -1.081   1.263   3.221  0.00  0.00    -0.097 F 
ATOM     12  F4  UNL d   1      -1.126   3.192   1.292  0.00  0.00    -0.092 F 
ENDROOT
TORSDOF 0
ENDMDL
