MODEL 1
REMARK minimizedAffinity 12.6356659
REMARK minimizedRMSD -1
REMARK  0 active torsions:
REMARK  status: ('A' for Active; 'I' for Inactive)
ROOT
ATOM      1  C   UNL d   1       1.343  -0.976  -0.735  0.00  0.00     0.124 A 
ATOM      2  C1  UNL d   1       2.597  -1.029  -0.143  0.00  0.00     0.062 A 
ATOM      3  C2  UNL d   1       3.247   0.146   0.227  0.00  0.00     0.162 A 
ATOM      4  C3  UNL d   1       2.642   1.383   0.007  0.00  0.00    -0.034 A 
ATOM      5  C4  UNL d   1       1.381   1.428  -0.590  0.00  0.00     0.162 A 
ATOM      6  C5  UNL d   1       0.736   0.252  -0.958  0.00  0.00     0.062 A 
ATOM      7  F   UNL d   1      -0.476   0.305  -1.529  0.00  0.00    -0.097 F 
ATOM      8  F1  UNL d   1       0.771   2.601  -0.816  0.00  0.00    -0.096 F 
ATOM      9  I   UNL d   1       3.610   3.142   0.558  0.00  0.00    -0.060 I 
ATOM     10  F2  UNL d   1       4.458   0.065   0.797  0.00  0.00    -0.096 F 
ATOM     11  F3  UNL d   1       3.186  -2.214   0.073  0.00  0.00    -0.097 F 
ATOM     12  F4  UNL d   1       0.721  -2.107  -1.090  0.00  0.00    -0.092 F 
ENDROOT
TORSDOF 0
ENDMDL
