MODEL 1
REMARK minimizedAffinity 2.36540222
REMARK minimizedRMSD -1
REMARK  0 active torsions:
REMARK  status: ('A' for Active; 'I' for Inactive)
ROOT
ATOM      1  C   UNL d   1       4.144   1.857  -1.227  0.00  0.00     0.124 A 
ATOM      2  C1  UNL d   1       3.426   1.713  -0.048  0.00  0.00     0.062 A 
ATOM      3  C2  UNL d   1       2.834   0.493   0.266  0.00  0.00     0.162 A 
ATOM      4  C3  UNL d   1       2.958  -0.593  -0.600  0.00  0.00    -0.034 A 
ATOM      5  C4  UNL d   1       3.682  -0.440  -1.785  0.00  0.00     0.162 A 
ATOM      6  C5  UNL d   1       4.272   0.781  -2.094  0.00  0.00     0.062 A 
ATOM      7  F   UNL d   1       4.965   0.919  -3.233  0.00  0.00    -0.097 F 
ATOM      8  F1  UNL d   1       3.821  -1.464  -2.640  0.00  0.00    -0.096 F 
ATOM      9  I   UNL d   1       2.074  -2.419  -0.135  0.00  0.00    -0.060 I 
ATOM     10  F2  UNL d   1       2.145   0.382   1.412  0.00  0.00    -0.096 F 
ATOM     11  F3  UNL d   1       3.301   2.752   0.790  0.00  0.00    -0.097 F 
ATOM     12  F4  UNL d   1       4.712   3.033  -1.527  0.00  0.00    -0.092 F 
ENDROOT
TORSDOF 0
ENDMDL
