MODEL 1
REMARK minimizedAffinity 4.91038322
REMARK minimizedRMSD -1
REMARK  0 active torsions:
REMARK  status: ('A' for Active; 'I' for Inactive)
ROOT
ATOM      1  C   UNL d   1      -0.036   0.896   2.226  0.00  0.00     0.124 A 
ATOM      2  C1  UNL d   1      -0.050   1.987   1.369  0.00  0.00     0.062 A 
ATOM      3  C2  UNL d   1       0.996   2.188   0.473  0.00  0.00     0.162 A 
ATOM      4  C3  UNL d   1       2.065   1.293   0.429  0.00  0.00    -0.034 A 
ATOM      5  C4  UNL d   1       2.073   0.198   1.295  0.00  0.00     0.162 A 
ATOM      6  C5  UNL d   1       1.025   0.002   2.188  0.00  0.00     0.062 A 
ATOM      7  F   UNL d   1       1.040  -1.053   3.015  0.00  0.00    -0.097 F 
ATOM      8  F1  UNL d   1       3.086  -0.681   1.278  0.00  0.00    -0.096 F 
ATOM      9  I   UNL d   1       3.632   1.590  -0.909  0.00  0.00    -0.060 I 
ATOM     10  F2  UNL d   1       0.956   3.251  -0.343  0.00  0.00    -0.096 F 
ATOM     11  F3  UNL d   1      -1.074   2.853   1.405  0.00  0.00    -0.097 F 
ATOM     12  F4  UNL d   1      -1.044   0.706   3.088  0.00  0.00    -0.092 F 
ENDROOT
TORSDOF 0
ENDMDL
