MODEL 1
REMARK minimizedAffinity 3.23583221
REMARK minimizedRMSD -1
REMARK  0 active torsions:
REMARK  status: ('A' for Active; 'I' for Inactive)
ROOT
ATOM      1  C   UNL d   1       2.366  -1.708  -0.566  0.00  0.00     0.124 A 
ATOM      2  C1  UNL d   1       1.286  -1.192  -1.270  0.00  0.00     0.062 A 
ATOM      3  C2  UNL d   1       0.864   0.115  -1.045  0.00  0.00     0.162 A 
ATOM      4  C3  UNL d   1       1.522   0.917  -0.112  0.00  0.00    -0.034 A 
ATOM      5  C4  UNL d   1       2.606   0.391   0.593  0.00  0.00     0.162 A 
ATOM      6  C5  UNL d   1       3.024  -0.916   0.364  0.00  0.00     0.062 A 
ATOM      7  F   UNL d   1       4.067  -1.413   1.046  0.00  0.00    -0.097 F 
ATOM      8  F1  UNL d   1       3.261   1.134   1.497  0.00  0.00    -0.096 F 
ATOM      9  I   UNL d   1       0.893   2.871   0.227  0.00  0.00    -0.060 I 
ATOM     10  F2  UNL d   1      -0.182   0.587  -1.740  0.00  0.00    -0.096 F 
ATOM     11  F3  UNL d   1       0.648  -1.955  -2.169  0.00  0.00    -0.097 F 
ATOM     12  F4  UNL d   1       2.769  -2.966  -0.784  0.00  0.00    -0.092 F 
ENDROOT
TORSDOF 0
ENDMDL
