MODEL 1
REMARK minimizedAffinity 9.57000732
REMARK minimizedRMSD -1
REMARK  0 active torsions:
REMARK  status: ('A' for Active; 'I' for Inactive)
ROOT
ATOM      1  C   UNL d   1       0.113  -2.115  -0.700  0.00  0.00     0.124 A 
ATOM      2  C1  UNL d   1       1.402  -2.609  -0.845  0.00  0.00     0.062 A 
ATOM      3  C2  UNL d   1       2.476  -1.735  -0.985  0.00  0.00     0.162 A 
ATOM      4  C3  UNL d   1       2.266  -0.356  -0.981  0.00  0.00    -0.034 A 
ATOM      5  C4  UNL d   1       0.966   0.134  -0.836  0.00  0.00     0.162 A 
ATOM      6  C5  UNL d   1      -0.103  -0.744  -0.696  0.00  0.00     0.062 A 
ATOM      7  F   UNL d   1      -1.348  -0.264  -0.556  0.00  0.00    -0.097 F 
ATOM      8  F1  UNL d   1       0.729   1.454  -0.827  0.00  0.00    -0.096 F 
ATOM      9  I   UNL d   1       3.868   0.955  -1.190  0.00  0.00    -0.060 I 
ATOM     10  F2  UNL d   1       3.710  -2.241  -1.124  0.00  0.00    -0.096 F 
ATOM     11  F3  UNL d   1       1.614  -3.933  -0.851  0.00  0.00    -0.097 F 
ATOM     12  F4  UNL d   1      -0.918  -2.958  -0.566  0.00  0.00    -0.092 F 
ENDROOT
TORSDOF 0
ENDMDL
