MODEL 1
REMARK minimizedAffinity 8.87486935
REMARK minimizedRMSD -1
REMARK  0 active torsions:
REMARK  status: ('A' for Active; 'I' for Inactive)
ROOT
ATOM      1  C   UNL d   1       0.300  -2.102  -0.471  0.00  0.00     0.124 A 
ATOM      2  C1  UNL d   1       1.572  -2.586  -0.742  0.00  0.00     0.062 A 
ATOM      3  C2  UNL d   1       2.628  -1.703  -0.949  0.00  0.00     0.162 A 
ATOM      4  C3  UNL d   1       2.416  -0.325  -0.885  0.00  0.00    -0.034 A 
ATOM      5  C4  UNL d   1       1.133   0.154  -0.612  0.00  0.00     0.162 A 
ATOM      6  C5  UNL d   1       0.082  -0.733  -0.406  0.00  0.00     0.062 A 
ATOM      7  F   UNL d   1      -1.147  -0.263  -0.143  0.00  0.00    -0.097 F 
ATOM      8  F1  UNL d   1       0.895   1.472  -0.542  0.00  0.00    -0.096 F 
ATOM      9  I   UNL d   1       3.992   0.999  -1.193  0.00  0.00    -0.060 I 
ATOM     10  F2  UNL d   1       3.847  -2.198  -1.210  0.00  0.00    -0.096 F 
ATOM     11  F3  UNL d   1       1.785  -3.908  -0.807  0.00  0.00    -0.097 F 
ATOM     12  F4  UNL d   1      -0.714  -2.954  -0.273  0.00  0.00    -0.092 F 
ENDROOT
TORSDOF 0
ENDMDL
