MODEL 1
REMARK minimizedAffinity -2.82647324
REMARK minimizedRMSD -1
REMARK  0 active torsions:
REMARK  status: ('A' for Active; 'I' for Inactive)
ROOT
ATOM      1  C   UNL d   1      -0.743   0.278   0.644  0.00  0.00     0.023 A 
ATOM      2  C1  UNL d   1      -1.055  -1.034   1.000  0.00  0.00     0.003 A 
ATOM      3  C2  UNL d   1      -0.479  -2.102   0.310  0.00  0.00     0.048 A 
ATOM      4  C3  UNL d   1       0.409  -1.852  -0.736  0.00  0.00     0.023 A 
ATOM      5  C4  UNL d   1       0.725  -0.540  -1.095  0.00  0.00     0.048 A 
ATOM      6  C5  UNL d   1       0.147   0.525  -0.402  0.00  0.00     0.003 A 
ATOM      7  I   UNL d   1       1.267  -3.440  -1.765  0.00  0.00    -0.146 I 
ENDROOT
TORSDOF 0
ENDMDL
