MODEL 1
REMARK minimizedAffinity -3.65189648
REMARK minimizedRMSD -1
REMARK  0 active torsions:
REMARK  status: ('A' for Active; 'I' for Inactive)
ROOT
ATOM      1  C   UNL d   1      -1.593   1.469   2.201  0.00  0.00     0.023 A 
ATOM      2  C1  UNL d   1      -1.745   1.734   0.840  0.00  0.00     0.003 A 
ATOM      3  C2  UNL d   1      -0.912   1.110  -0.091  0.00  0.00     0.048 A 
ATOM      4  C3  UNL d   1       0.070   0.222   0.346  0.00  0.00     0.023 A 
ATOM      5  C4  UNL d   1       0.225  -0.047   1.707  0.00  0.00     0.048 A 
ATOM      6  C5  UNL d   1      -0.610   0.580   2.634  0.00  0.00     0.003 A 
ATOM      7  I   UNL d   1       1.311  -0.708  -1.038  0.00  0.00    -0.146 I 
ENDROOT
TORSDOF 0
ENDMDL
