MODEL 1
REMARK minimizedAffinity -3.12300444
REMARK minimizedRMSD -1
REMARK  0 active torsions:
REMARK  status: ('A' for Active; 'I' for Inactive)
ROOT
ATOM      1  C   UNL d   1       1.100   0.124  -1.009  0.00  0.00     0.023 A 
ATOM      2  C1  UNL d   1       0.611  -0.532   0.121  0.00  0.00     0.003 A 
ATOM      3  C2  UNL d   1      -0.315   0.102   0.952  0.00  0.00     0.048 A 
ATOM      4  C3  UNL d   1      -0.749   1.391   0.647  0.00  0.00     0.023 A 
ATOM      5  C4  UNL d   1      -0.263   2.052  -0.483  0.00  0.00     0.048 A 
ATOM      6  C5  UNL d   1       0.663   1.415  -1.310  0.00  0.00     0.003 A 
ATOM      7  I   UNL d   1      -2.128   2.336   1.882  0.00  0.00    -0.146 I 
ENDROOT
TORSDOF 0
ENDMDL
