MODEL 1
REMARK minimizedAffinity -3.26478362
REMARK minimizedRMSD -1
REMARK  0 active torsions:
REMARK  status: ('A' for Active; 'I' for Inactive)
ROOT
ATOM      1  C   UNL d   1      -0.592   2.632  -0.757  0.00  0.00     0.023 A 
ATOM      2  C1  UNL d   1       0.394   1.659  -0.921  0.00  0.00     0.003 A 
ATOM      3  C2  UNL d   1       0.483   0.595  -0.022  0.00  0.00     0.048 A 
ATOM      4  C3  UNL d   1      -0.418   0.509   1.039  0.00  0.00     0.023 A 
ATOM      5  C4  UNL d   1      -1.407   1.479   1.206  0.00  0.00     0.048 A 
ATOM      6  C5  UNL d   1      -1.492   2.542   0.305  0.00  0.00     0.003 A 
ATOM      7  I   UNL d   1      -0.288  -1.075   2.379  0.00  0.00    -0.146 I 
ENDROOT
TORSDOF 0
ENDMDL
