MODEL 1
REMARK minimizedAffinity -4.85742712
REMARK minimizedRMSD -1
REMARK  0 active torsions:
REMARK  status: ('A' for Active; 'I' for Inactive)
ROOT
ATOM      1  C   UNL d   1      -1.687   2.877   0.693  0.00  0.00     0.023 A 
ATOM      2  C1  UNL d   1      -0.756   3.130  -0.315  0.00  0.00     0.003 A 
ATOM      3  C2  UNL d   1       0.093   2.112  -0.754  0.00  0.00     0.048 A 
ATOM      4  C3  UNL d   1       0.005   0.843  -0.182  0.00  0.00     0.023 A 
ATOM      5  C4  UNL d   1      -0.926   0.585   0.825  0.00  0.00     0.048 A 
ATOM      6  C5  UNL d   1      -1.772   1.606   1.262  0.00  0.00     0.003 A 
ATOM      7  I   UNL d   1       1.268  -0.673  -0.835  0.00  0.00    -0.146 I 
ENDROOT
TORSDOF 0
ENDMDL
