MODEL 1
REMARK minimizedAffinity -2.91219187
REMARK minimizedRMSD -1
REMARK  0 active torsions:
REMARK  status: ('A' for Active; 'I' for Inactive)
ROOT
ATOM      1  C   UNL d   1      -0.960   1.776   0.863  0.00  0.00     0.023 A 
ATOM      2  C1  UNL d   1      -0.663   0.682   1.676  0.00  0.00     0.003 A 
ATOM      3  C2  UNL d   1       0.083  -0.384   1.170  0.00  0.00     0.048 A 
ATOM      4  C3  UNL d   1       0.531  -0.349  -0.150  0.00  0.00     0.023 A 
ATOM      5  C4  UNL d   1       0.237   0.744  -0.967  0.00  0.00     0.048 A 
ATOM      6  C5  UNL d   1      -0.511   1.806  -0.457  0.00  0.00     0.003 A 
ATOM      7  I   UNL d   1       1.643  -1.934  -0.905  0.00  0.00    -0.146 I 
ENDROOT
TORSDOF 0
ENDMDL
