MODEL 1
REMARK minimizedAffinity -2.17251444
REMARK minimizedRMSD -1
REMARK  0 active torsions:
REMARK  status: ('A' for Active; 'I' for Inactive)
ROOT
ATOM      1  C   UNL d   1       1.650  -3.232  -2.240  0.00  0.00     0.023 A 
ATOM      2  C1  UNL d   1       0.896  -2.463  -3.126  0.00  0.00     0.003 A 
ATOM      3  C2  UNL d   1       0.266  -1.299  -2.681  0.00  0.00     0.048 A 
ATOM      4  C3  UNL d   1       0.395  -0.909  -1.349  0.00  0.00     0.023 A 
ATOM      5  C4  UNL d   1       1.149  -1.675  -0.458  0.00  0.00     0.048 A 
ATOM      6  C5  UNL d   1       1.777  -2.839  -0.908  0.00  0.00     0.003 A 
ATOM      7  I   UNL d   1      -0.541   0.823  -0.684  0.00  0.00    -0.146 I 
ENDROOT
TORSDOF 0
ENDMDL
