MODEL 1
REMARK minimizedAffinity -4.85206318
REMARK minimizedRMSD -1
REMARK  0 active torsions:
REMARK  status: ('A' for Active; 'I' for Inactive)
ROOT
ATOM      1  C   UNL d   1      -1.755   2.961   1.018  0.00  0.00     0.023 A 
ATOM      2  C1  UNL d   1      -0.989   3.111  -0.138  0.00  0.00     0.003 A 
ATOM      3  C2  UNL d   1      -0.252   2.034  -0.633  0.00  0.00     0.048 A 
ATOM      4  C3  UNL d   1      -0.286   0.809   0.032  0.00  0.00     0.023 A 
ATOM      5  C4  UNL d   1      -1.052   0.654   1.189  0.00  0.00     0.048 A 
ATOM      6  C5  UNL d   1      -1.786   1.734   1.681  0.00  0.00     0.003 A 
ATOM      7  I   UNL d   1       0.811  -0.797  -0.702  0.00  0.00    -0.146 I 
ENDROOT
TORSDOF 0
ENDMDL
