MODEL 1
REMARK minimizedAffinity -4.13786268
REMARK minimizedRMSD -1
REMARK  0 active torsions:
REMARK  status: ('A' for Active; 'I' for Inactive)
ROOT
ATOM      1  C   UNL d   1       1.115  -0.781  -1.327  0.00  0.00     0.023 A 
ATOM      2  C1  UNL d   1      -0.007  -1.403  -0.779  0.00  0.00     0.003 A 
ATOM      3  C2  UNL d   1      -0.921  -0.661  -0.029  0.00  0.00     0.048 A 
ATOM      4  C3  UNL d   1      -0.708   0.703   0.170  0.00  0.00     0.023 A 
ATOM      5  C4  UNL d   1       0.413   1.329  -0.377  0.00  0.00     0.048 A 
ATOM      6  C5  UNL d   1       1.325   0.583  -1.126  0.00  0.00     0.003 A 
ATOM      7  I   UNL d   1      -2.067   1.809   1.287  0.00  0.00    -0.146 I 
ENDROOT
TORSDOF 0
ENDMDL
