MODEL 1
REMARK minimizedAffinity -2.97112322
REMARK minimizedRMSD -1
REMARK  0 active torsions:
REMARK  status: ('A' for Active; 'I' for Inactive)
ROOT
ATOM      1  C   UNL d   1      -1.305   1.852   1.703  0.00  0.00     0.023 A 
ATOM      2  C1  UNL d   1      -1.821   1.660   0.422  0.00  0.00     0.003 A 
ATOM      3  C2  UNL d   1      -1.283   0.674  -0.408  0.00  0.00     0.048 A 
ATOM      4  C3  UNL d   1      -0.230  -0.117   0.051  0.00  0.00     0.023 A 
ATOM      5  C4  UNL d   1       0.289   0.071   1.333  0.00  0.00     0.048 A 
ATOM      6  C5  UNL d   1      -0.251   1.059   2.158  0.00  0.00     0.003 A 
ATOM      7  I   UNL d   1       0.571  -1.586  -1.182  0.00  0.00    -0.146 I 
ENDROOT
TORSDOF 0
ENDMDL
