MODEL 1
REMARK minimizedAffinity 1.88106191
REMARK minimizedRMSD -1
REMARK  0 active torsions:
REMARK  status: ('A' for Active; 'I' for Inactive)
ROOT
ATOM      1  C   UNL d   1      -0.554  -2.001   0.012  0.00  0.00     0.023 A 
ATOM      2  C1  UNL d   1      -0.166  -2.749  -1.100  0.00  0.00     0.003 A 
ATOM      3  C2  UNL d   1       0.757  -3.787  -0.956  0.00  0.00     0.048 A 
ATOM      4  C3  UNL d   1       1.286  -4.072   0.301  0.00  0.00     0.023 A 
ATOM      5  C4  UNL d   1       0.900  -3.327   1.417  0.00  0.00     0.048 A 
ATOM      6  C5  UNL d   1      -0.022  -2.289   1.268  0.00  0.00     0.003 A 
ATOM      7  I   UNL d   1       2.660  -5.617   0.518  0.00  0.00    -0.146 I 
ENDROOT
TORSDOF 0
ENDMDL
