MODEL 1
REMARK minimizedAffinity 12.0832882
REMARK minimizedRMSD -1
REMARK  0 active torsions:
REMARK  status: ('A' for Active; 'I' for Inactive)
ROOT
ATOM      1  C   UNL d   1       2.845   5.948  -0.820  0.00  0.00     0.023 A 
ATOM      2  C1  UNL d   1       2.372   5.930  -2.132  0.00  0.00     0.003 A 
ATOM      3  C2  UNL d   1       3.272   5.944  -3.200  0.00  0.00     0.048 A 
ATOM      4  C3  UNL d   1       4.643   5.974  -2.948  0.00  0.00     0.023 A 
ATOM      5  C4  UNL d   1       5.120   5.991  -1.637  0.00  0.00     0.048 A 
ATOM      6  C5  UNL d   1       4.217   5.979  -0.572  0.00  0.00     0.003 A 
ATOM      7  I   UNL d   1       5.984   5.994  -4.536  0.00  0.00    -0.146 I 
ENDROOT
TORSDOF 0
ENDMDL
