MODEL 1
REMARK minimizedAffinity 6.96398401
REMARK minimizedRMSD -1
REMARK  0 active torsions:
REMARK  status: ('A' for Active; 'I' for Inactive)
ROOT
ATOM      1  C   UNL d   1       2.824   2.344   1.614  0.00  0.00     0.023 A 
ATOM      2  C1  UNL d   1       2.709   2.297   3.004  0.00  0.00     0.003 A 
ATOM      3  C2  UNL d   1       2.605   1.066   3.656  0.00  0.00     0.048 A 
ATOM      4  C3  UNL d   1       2.619  -0.114   2.912  0.00  0.00     0.023 A 
ATOM      5  C4  UNL d   1       2.735  -0.071   1.522  0.00  0.00     0.048 A 
ATOM      6  C5  UNL d   1       2.837   1.161   0.874  0.00  0.00     0.003 A 
ATOM      7  I   UNL d   1       2.466  -1.946   3.880  0.00  0.00    -0.146 I 
ENDROOT
TORSDOF 0
ENDMDL
