MODEL 1
REMARK minimizedAffinity 6.09701061
REMARK minimizedRMSD -1
REMARK  0 active torsions:
REMARK  status: ('A' for Active; 'I' for Inactive)
ROOT
ATOM      1  C   UNL d   1       0.284  -1.188   0.755  0.00  0.00     0.023 A 
ATOM      2  C1  UNL d   1      -0.097  -2.493   1.065  0.00  0.00     0.003 A 
ATOM      3  C2  UNL d   1       0.448  -3.135   2.179  0.00  0.00     0.048 A 
ATOM      4  C3  UNL d   1       1.373  -2.465   2.979  0.00  0.00     0.023 A 
ATOM      5  C4  UNL d   1       1.757  -1.159   2.673  0.00  0.00     0.048 A 
ATOM      6  C5  UNL d   1       1.210  -0.521   1.558  0.00  0.00     0.003 A 
ATOM      7  I   UNL d   1       2.185  -3.418   4.638  0.00  0.00    -0.146 I 
ENDROOT
TORSDOF 0
ENDMDL
