MODEL 1
REMARK minimizedAffinity 2.00333095
REMARK minimizedRMSD -1
REMARK  0 active torsions:
REMARK  status: ('A' for Active; 'I' for Inactive)
ROOT
ATOM      1  C   UNL d   1       1.932  -1.559   4.004  0.00  0.00     0.023 A 
ATOM      2  C1  UNL d   1       1.882  -0.610   2.983  0.00  0.00     0.003 A 
ATOM      3  C2  UNL d   1       1.192  -0.890   1.801  0.00  0.00     0.048 A 
ATOM      4  C3  UNL d   1       0.553  -2.120   1.648  0.00  0.00     0.023 A 
ATOM      5  C4  UNL d   1       0.599  -3.072   2.668  0.00  0.00     0.048 A 
ATOM      6  C5  UNL d   1       1.291  -2.788   3.847  0.00  0.00     0.003 A 
ATOM      7  I   UNL d   1      -0.475  -2.538  -0.109  0.00  0.00    -0.146 I 
ENDROOT
TORSDOF 0
ENDMDL
