MODEL 1
REMARK minimizedAffinity 11.5401649
REMARK minimizedRMSD -1
REMARK  0 active torsions:
REMARK  status: ('A' for Active; 'I' for Inactive)
ROOT
ATOM      1  C   UNL d   1       5.999  -3.440   3.826  0.00  0.00     0.023 A 
ATOM      2  C1  UNL d   1       4.817  -3.671   4.531  0.00  0.00     0.003 A 
ATOM      3  C2  UNL d   1       3.634  -3.042   4.139  0.00  0.00     0.048 A 
ATOM      4  C3  UNL d   1       3.638  -2.184   3.039  0.00  0.00     0.023 A 
ATOM      5  C4  UNL d   1       4.818  -1.951   2.330  0.00  0.00     0.048 A 
ATOM      6  C5  UNL d   1       5.999  -2.581   2.727  0.00  0.00     0.003 A 
ATOM      7  I   UNL d   1       1.878  -1.247   2.453  0.00  0.00    -0.146 I 
ENDROOT
TORSDOF 0
ENDMDL
