MODEL 1
REMARK minimizedAffinity 1.22622466
REMARK minimizedRMSD -1
REMARK  0 active torsions:
REMARK  status: ('A' for Active; 'I' for Inactive)
ROOT
ATOM      1  C   UNL d   1       3.026   1.058   2.453  0.00  0.00     0.023 A 
ATOM      2  C1  UNL d   1       2.491  -0.017   3.162  0.00  0.00     0.003 A 
ATOM      3  C2  UNL d   1       1.578  -0.876   2.548  0.00  0.00     0.048 A 
ATOM      4  C3  UNL d   1       1.205  -0.655   1.222  0.00  0.00     0.023 A 
ATOM      5  C4  UNL d   1       1.739   0.419   0.508  0.00  0.00     0.048 A 
ATOM      6  C5  UNL d   1       2.651   1.276   1.127  0.00  0.00     0.003 A 
ATOM      7  I   UNL d   1      -0.154  -1.932   0.305  0.00  0.00    -0.146 I 
ENDROOT
TORSDOF 0
ENDMDL
