MODEL 1
REMARK minimizedAffinity 2.52016664
REMARK minimizedRMSD -1
REMARK  0 active torsions:
REMARK  status: ('A' for Active; 'I' for Inactive)
ROOT
ATOM      1  C   UNL d   1       1.269   1.630  -0.039  0.00  0.00     0.023 A 
ATOM      2  C1  UNL d   1       2.322   1.929   0.827  0.00  0.00     0.003 A 
ATOM      3  C2  UNL d   1       2.613   1.078   1.894  0.00  0.00     0.048 A 
ATOM      4  C3  UNL d   1       1.848  -0.072   2.090  0.00  0.00     0.023 A 
ATOM      5  C4  UNL d   1       0.795  -0.376   1.226  0.00  0.00     0.048 A 
ATOM      6  C5  UNL d   1       0.507   0.479   0.161  0.00  0.00     0.003 A 
ATOM      7  I   UNL d   1       2.280  -1.341   3.678  0.00  0.00    -0.146 I 
ENDROOT
TORSDOF 0
ENDMDL
