MODEL 1
REMARK minimizedAffinity 1.24748898
REMARK minimizedRMSD -1
REMARK  0 active torsions:
REMARK  status: ('A' for Active; 'I' for Inactive)
ROOT
ATOM      1  C   UNL d   1       2.881   0.810   2.434  0.00  0.00     0.023 A 
ATOM      2  C1  UNL d   1       2.399  -0.317   3.098  0.00  0.00     0.003 A 
ATOM      3  C2  UNL d   1       1.515  -1.185   2.453  0.00  0.00     0.048 A 
ATOM      4  C3  UNL d   1       1.118  -0.919   1.143  0.00  0.00     0.023 A 
ATOM      5  C4  UNL d   1       1.598   0.207   0.474  0.00  0.00     0.048 A 
ATOM      6  C5  UNL d   1       2.481   1.072   1.123  0.00  0.00     0.003 A 
ATOM      7  I   UNL d   1      -0.197  -2.209   0.181  0.00  0.00    -0.146 I 
ENDROOT
TORSDOF 0
ENDMDL
