MODEL 1
REMARK minimizedAffinity -2.12534428
REMARK minimizedRMSD -1
REMARK  1 active torsions:
REMARK  status: ('A' for Active; 'I' for Inactive)
REMARK    1  A    between atoms: C1_2  and  C2_3 
ROOT
ATOM      1  C2  UNL d   1      -0.662   0.031   0.586  0.00  0.00    -0.077 A 
ATOM      2  C3  UNL d   1      -0.052  -1.142   0.120  0.00  0.00     0.002 A 
ATOM      3  C4  UNL d   1       1.081  -1.073  -0.694  0.00  0.00     0.002 A 
ATOM      4  C5  UNL d   1       1.615   0.165  -1.044  0.00  0.00    -0.004 A 
ATOM      5  C6  UNL d   1       1.015   1.337  -0.586  0.00  0.00     0.002 A 
ATOM      6  C7  UNL d   1      -0.118   1.271   0.226  0.00  0.00     0.002 A 
ENDROOT
BRANCH   1   7
ATOM      7  C1  UNL d   1      -1.854  -0.042   1.504  0.00  0.00     0.055 C 
ATOM      8  C   UNL d   1      -2.279   1.343   1.971  0.00  0.00     0.019 C 
ENDBRANCH   1   7
TORSDOF 1
ENDMDL
