MODEL 1
REMARK minimizedAffinity -3.07882071
REMARK minimizedRMSD -1
REMARK  1 active torsions:
REMARK  status: ('A' for Active; 'I' for Inactive)
REMARK    1  A    between atoms: C1_2  and  C2_3 
ROOT
ATOM      1  C2  UNL d   1       1.080  -0.797  -0.665  0.00  0.00    -0.077 A 
ATOM      2  C3  UNL d   1       1.974  -0.044  -1.439  0.00  0.00     0.002 A 
ATOM      3  C4  UNL d   1       1.921   1.351  -1.421  0.00  0.00     0.002 A 
ATOM      4  C5  UNL d   1       0.978   2.005  -0.630  0.00  0.00    -0.004 A 
ATOM      5  C6  UNL d   1       0.083   1.264   0.141  0.00  0.00     0.002 A 
ATOM      6  C7  UNL d   1       0.134  -0.130   0.125  0.00  0.00     0.002 A 
ENDROOT
BRANCH   1   7
ATOM      7  C1  UNL d   1       1.167  -2.301  -0.644  0.00  0.00     0.055 C 
ATOM      8  C   UNL d   1       2.363  -2.797  -1.445  0.00  0.00     0.019 C 
ENDBRANCH   1   7
TORSDOF 1
ENDMDL
