MODEL 1
REMARK minimizedAffinity -5.66843891
REMARK minimizedRMSD -1
REMARK  1 active torsions:
REMARK  status: ('A' for Active; 'I' for Inactive)
REMARK    1  A    between atoms: C1_2  and  C2_3 
ROOT
ATOM      1  C2  UNL d   1       0.313  -0.568  -0.391  0.00  0.00    -0.077 A 
ATOM      2  C3  UNL d   1       0.544  -1.898  -0.770  0.00  0.00     0.002 A 
ATOM      3  C4  UNL d   1       1.344  -2.188  -1.877  0.00  0.00     0.002 A 
ATOM      4  C5  UNL d   1       1.922  -1.154  -2.611  0.00  0.00    -0.004 A 
ATOM      5  C6  UNL d   1       1.697   0.171  -2.244  0.00  0.00     0.002 A 
ATOM      6  C7  UNL d   1       0.896   0.464  -1.138  0.00  0.00     0.002 A 
ENDROOT
BRANCH   1   7
ATOM      7  C1  UNL d   1      -0.510  -0.254   0.831  0.00  0.00     0.055 C 
ATOM      8  C   UNL d   1      -0.831  -1.515   1.620  0.00  0.00     0.019 C 
ENDBRANCH   1   7
TORSDOF 1
ENDMDL
