MODEL 1
REMARK minimizedAffinity -3.7826333
REMARK minimizedRMSD -1
REMARK  1 active torsions:
REMARK  status: ('A' for Active; 'I' for Inactive)
REMARK    1  A    between atoms: C1_2  and  C2_3 
ROOT
ATOM      1  C2  UNL d   1      -0.846   0.276   1.003  0.00  0.00    -0.077 A 
ATOM      2  C3  UNL d   1      -0.351   1.484   0.493  0.00  0.00     0.002 A 
ATOM      3  C4  UNL d   1       0.756   1.490  -0.358  0.00  0.00     0.002 A 
ATOM      4  C5  UNL d   1       1.373   0.291  -0.710  0.00  0.00    -0.004 A 
ATOM      5  C6  UNL d   1       0.889  -0.915  -0.206  0.00  0.00     0.002 A 
ATOM      6  C7  UNL d   1      -0.216  -0.923   0.646  0.00  0.00     0.002 A 
ENDROOT
BRANCH   1   7
ATOM      7  C1  UNL d   1      -2.070   0.263   1.882  0.00  0.00     0.055 C 
ATOM      8  C   UNL d   1      -3.345   0.353   1.057  0.00  0.00     0.019 C 
ENDBRANCH   1   7
TORSDOF 1
ENDMDL
