MODEL 1
REMARK minimizedAffinity 4.13492775
REMARK minimizedRMSD -1
REMARK  1 active torsions:
REMARK  status: ('A' for Active; 'I' for Inactive)
REMARK    1  A    between atoms: C1_2  and  C2_3 
ROOT
ATOM      1  C2  UNL d   1      -3.501   2.372   2.728  0.00  0.00    -0.077 A 
ATOM      2  C3  UNL d   1      -2.430   1.795   3.424  0.00  0.00     0.002 A 
ATOM      3  C4  UNL d   1      -1.880   2.439   4.534  0.00  0.00     0.002 A 
ATOM      4  C5  UNL d   1      -2.397   3.661   4.960  0.00  0.00    -0.004 A 
ATOM      5  C6  UNL d   1      -3.461   4.244   4.273  0.00  0.00     0.002 A 
ATOM      6  C7  UNL d   1      -4.012   3.602   3.163  0.00  0.00     0.002 A 
ENDROOT
BRANCH   1   7
ATOM      7  C1  UNL d   1      -4.128   1.656   1.561  0.00  0.00     0.055 C 
ATOM      8  C   UNL d   1      -3.773   0.176   1.564  0.00  0.00     0.019 C 
ENDBRANCH   1   7
TORSDOF 1
ENDMDL
