MODEL 1
REMARK minimizedAffinity -3.37017155
REMARK minimizedRMSD -1
REMARK  1 active torsions:
REMARK  status: ('A' for Active; 'I' for Inactive)
REMARK    1  A    between atoms: C1_2  and  C2_3 
ROOT
ATOM      1  C2  UNL d   1      -1.382   0.146   1.056  0.00  0.00    -0.077 A 
ATOM      2  C3  UNL d   1      -2.483  -0.566   0.560  0.00  0.00     0.002 A 
ATOM      3  C4  UNL d   1      -3.773  -0.273   1.006  0.00  0.00     0.002 A 
ATOM      4  C5  UNL d   1      -3.975   0.735   1.946  0.00  0.00    -0.004 A 
ATOM      5  C6  UNL d   1      -2.886   1.448   2.447  0.00  0.00     0.002 A 
ATOM      6  C7  UNL d   1      -1.596   1.156   2.003  0.00  0.00     0.002 A 
ENDROOT
BRANCH   1   7
ATOM      7  C1  UNL d   1       0.005  -0.135   0.539  0.00  0.00     0.055 C 
ATOM      8  C   UNL d   1       0.663   1.129   0.004  0.00  0.00     0.019 C 
ENDBRANCH   1   7
TORSDOF 1
ENDMDL
