MODEL 1
REMARK minimizedAffinity -4.10673952
REMARK minimizedRMSD -1
REMARK  1 active torsions:
REMARK  status: ('A' for Active; 'I' for Inactive)
REMARK    1  A    between atoms: C1_2  and  C2_3 
ROOT
ATOM      1  C2  UNL d   1      -0.042  -0.003   0.565  0.00  0.00    -0.077 A 
ATOM      2  C3  UNL d   1       0.329  -0.869  -0.473  0.00  0.00     0.002 A 
ATOM      3  C4  UNL d   1       1.158  -0.422  -1.504  0.00  0.00     0.002 A 
ATOM      4  C5  UNL d   1       1.626   0.890  -1.504  0.00  0.00    -0.004 A 
ATOM      5  C6  UNL d   1       1.262   1.760  -0.477  0.00  0.00     0.002 A 
ATOM      6  C7  UNL d   1       0.432   1.315   0.553  0.00  0.00     0.002 A 
ENDROOT
BRANCH   1   7
ATOM      7  C1  UNL d   1      -0.896  -0.497   1.703  0.00  0.00     0.055 C 
ATOM      8  C   UNL d   1      -2.185   0.304   1.816  0.00  0.00     0.019 C 
ENDBRANCH   1   7
TORSDOF 1
ENDMDL
