MODEL 1
REMARK minimizedAffinity -3.64674282
REMARK minimizedRMSD -1
REMARK  1 active torsions:
REMARK  status: ('A' for Active; 'I' for Inactive)
REMARK    1  A    between atoms: C1_2  and  C2_3 
ROOT
ATOM      1  C2  UNL d   1      -1.592   0.300   1.192  0.00  0.00    -0.077 A 
ATOM      2  C3  UNL d   1      -1.729   1.181   2.273  0.00  0.00     0.002 A 
ATOM      3  C4  UNL d   1      -2.989   1.444   2.815  0.00  0.00     0.002 A 
ATOM      4  C5  UNL d   1      -4.120   0.826   2.286  0.00  0.00    -0.004 A 
ATOM      5  C6  UNL d   1      -3.994  -0.050   1.209  0.00  0.00     0.002 A 
ATOM      6  C7  UNL d   1      -2.736  -0.313   0.665  0.00  0.00     0.002 A 
ENDROOT
BRANCH   1   7
ATOM      7  C1  UNL d   1      -0.229  -0.023   0.637  0.00  0.00     0.055 C 
ATOM      8  C   UNL d   1       0.482   1.232   0.153  0.00  0.00     0.019 C 
ENDBRANCH   1   7
TORSDOF 1
ENDMDL
