MODEL 1
REMARK minimizedAffinity 5.2716918
REMARK minimizedRMSD -1
REMARK  1 active torsions:
REMARK  status: ('A' for Active; 'I' for Inactive)
REMARK    1  A    between atoms: C1_2  and  C2_3 
ROOT
ATOM      1  C2  UNL d   1       1.631   2.747  -1.390  0.00  0.00    -0.077 A 
ATOM      2  C3  UNL d   1       2.565   2.008  -0.651  0.00  0.00     0.002 A 
ATOM      3  C4  UNL d   1       2.780   0.657  -0.933  0.00  0.00     0.002 A 
ATOM      4  C5  UNL d   1       2.069   0.036  -1.956  0.00  0.00    -0.004 A 
ATOM      5  C6  UNL d   1       1.136   0.762  -2.696  0.00  0.00     0.002 A 
ATOM      6  C7  UNL d   1       0.919   2.111  -2.415  0.00  0.00     0.002 A 
ENDROOT
BRANCH   1   7
ATOM      7  C1  UNL d   1       1.433   4.215  -1.120  0.00  0.00     0.055 C 
ATOM      8  C   UNL d   1       0.998   4.460   0.318  0.00  0.00     0.019 C 
ENDBRANCH   1   7
TORSDOF 1
ENDMDL
