MODEL 1
REMARK minimizedAffinity -3.44846058
REMARK minimizedRMSD -1
REMARK  1 active torsions:
REMARK  status: ('A' for Active; 'I' for Inactive)
REMARK    1  A    between atoms: C1_2  and  C2_3 
ROOT
ATOM      1  C2  UNL d   1       1.201  -0.282  -1.049  0.00  0.00    -0.077 A 
ATOM      2  C3  UNL d   1       0.679   0.706  -0.203  0.00  0.00     0.002 A 
ATOM      3  C4  UNL d   1      -0.091   0.351   0.906  0.00  0.00     0.002 A 
ATOM      4  C5  UNL d   1      -0.342  -0.992   1.181  0.00  0.00    -0.004 A 
ATOM      5  C6  UNL d   1       0.171  -1.982   0.344  0.00  0.00     0.002 A 
ATOM      6  C7  UNL d   1       0.940  -1.628  -0.766  0.00  0.00     0.002 A 
ENDROOT
BRANCH   1   7
ATOM      7  C1  UNL d   1       2.073   0.097  -2.218  0.00  0.00     0.055 C 
ATOM      8  C   UNL d   1       3.532  -0.245  -1.954  0.00  0.00     0.019 C 
ENDBRANCH   1   7
TORSDOF 1
ENDMDL
