MODEL 1
REMARK minimizedAffinity -3.19601583
REMARK minimizedRMSD -1
REMARK  0 active torsions:
REMARK  status: ('A' for Active; 'I' for Inactive)
ROOT
ATOM      1  C   UNL d   1      -1.822   0.765   0.639  0.00  0.00     0.124 A 
ATOM      2  C1  UNL d   1      -1.269   2.038   0.686  0.00  0.00     0.062 A 
ATOM      3  C2  UNL d   1       0.108   2.208   0.576  0.00  0.00     0.162 A 
ATOM      4  C3  UNL d   1       0.943   1.102   0.417  0.00  0.00    -0.034 A 
ATOM      5  C4  UNL d   1       0.380  -0.175   0.371  0.00  0.00     0.162 A 
ATOM      6  C5  UNL d   1      -0.997  -0.340   0.481  0.00  0.00     0.062 A 
ATOM      7  F   UNL d   1      -1.529  -1.570   0.435  0.00  0.00    -0.097 F 
ATOM      8  F1  UNL d   1       1.154  -1.260   0.218  0.00  0.00    -0.096 F 
ATOM      9  I   UNL d   1       3.002   1.352   0.252  0.00  0.00    -0.060 I 
ATOM     10  F2  UNL d   1       0.614   3.449   0.626  0.00  0.00    -0.096 F 
ATOM     11  F3  UNL d   1      -2.064   3.107   0.839  0.00  0.00    -0.097 F 
ATOM     12  F4  UNL d   1      -3.147   0.604   0.745  0.00  0.00    -0.092 F 
ENDROOT
TORSDOF 0
ENDMDL
