MODEL 1
REMARK minimizedAffinity 0.482718349
REMARK minimizedRMSD -1
REMARK  0 active torsions:
REMARK  status: ('A' for Active; 'I' for Inactive)
ROOT
ATOM      1  C   UNL d   1       0.351   2.209   0.785  0.00  0.00     0.124 A 
ATOM      2  C1  UNL d   1      -0.994   1.876   0.701  0.00  0.00     0.062 A 
ATOM      3  C2  UNL d   1      -1.375   0.574   0.391  0.00  0.00     0.162 A 
ATOM      4  C3  UNL d   1      -0.410  -0.406   0.162  0.00  0.00    -0.034 A 
ATOM      5  C4  UNL d   1       0.941  -0.064   0.246  0.00  0.00     0.162 A 
ATOM      6  C5  UNL d   1       1.317   1.239   0.557  0.00  0.00     0.062 A 
ATOM      7  F   UNL d   1       2.617   1.558   0.637  0.00  0.00    -0.097 F 
ATOM      8  F1  UNL d   1       1.896  -0.982   0.032  0.00  0.00    -0.096 F 
ATOM      9  I   UNL d   1      -0.975  -2.354  -0.302  0.00  0.00    -0.060 I 
ATOM     10  F2  UNL d   1      -2.682   0.281   0.317  0.00  0.00    -0.096 F 
ATOM     11  F3  UNL d   1      -1.929   2.812   0.920  0.00  0.00    -0.097 F 
ATOM     12  F4  UNL d   1       0.715   3.463   1.082  0.00  0.00    -0.092 F 
ENDROOT
TORSDOF 0
ENDMDL
