MODEL 1
REMARK minimizedAffinity -2.26899004
REMARK minimizedRMSD -1
REMARK  0 active torsions:
REMARK  status: ('A' for Active; 'I' for Inactive)
ROOT
ATOM      1  C   UNL d   1      -1.140   2.104   0.623  0.00  0.00     0.124 A 
ATOM      2  C1  UNL d   1      -1.692   0.843   0.803  0.00  0.00     0.062 A 
ATOM      3  C2  UNL d   1      -1.004  -0.289   0.376  0.00  0.00     0.162 A 
ATOM      4  C3  UNL d   1       0.244  -0.166  -0.235  0.00  0.00    -0.034 A 
ATOM      5  C4  UNL d   1       0.792   1.106  -0.413  0.00  0.00     0.162 A 
ATOM      6  C5  UNL d   1       0.100   2.234   0.015  0.00  0.00     0.062 A 
ATOM      7  F   UNL d   1       0.635   3.452  -0.160  0.00  0.00    -0.097 F 
ATOM      8  F1  UNL d   1       1.989   1.260  -0.997  0.00  0.00    -0.096 F 
ATOM      9  I   UNL d   1       1.275  -1.856  -0.874  0.00  0.00    -0.060 I 
ATOM     10  F2  UNL d   1      -1.561  -1.495   0.563  0.00  0.00    -0.096 F 
ATOM     11  F3  UNL d   1      -2.891   0.715   1.389  0.00  0.00    -0.097 F 
ATOM     12  F4  UNL d   1      -1.805   3.192   1.034  0.00  0.00    -0.092 F 
ENDROOT
TORSDOF 0
ENDMDL
