MODEL 1
REMARK minimizedAffinity 1.88832271
REMARK minimizedRMSD -1
REMARK  0 active torsions:
REMARK  status: ('A' for Active; 'I' for Inactive)
ROOT
ATOM      1  C   UNL d   1       1.991   0.727   0.309  0.00  0.00     0.124 A 
ATOM      2  C1  UNL d   1       1.285  -0.460   0.171  0.00  0.00     0.062 A 
ATOM      3  C2  UNL d   1      -0.088  -0.488   0.402  0.00  0.00     0.162 A 
ATOM      4  C3  UNL d   1      -0.763   0.675   0.772  0.00  0.00    -0.034 A 
ATOM      5  C4  UNL d   1      -0.045   1.864   0.910  0.00  0.00     0.162 A 
ATOM      6  C5  UNL d   1       1.326   1.887   0.678  0.00  0.00     0.062 A 
ATOM      7  F   UNL d   1       2.007   3.035   0.812  0.00  0.00    -0.097 F 
ATOM      8  F1  UNL d   1      -0.664   3.000   1.264  0.00  0.00    -0.096 F 
ATOM      9  I   UNL d   1      -2.815   0.636   1.117  0.00  0.00    -0.060 I 
ATOM     10  F2  UNL d   1      -0.745  -1.649   0.261  0.00  0.00    -0.096 F 
ATOM     11  F3  UNL d   1       1.926  -1.583  -0.184  0.00  0.00    -0.097 F 
ATOM     12  F4  UNL d   1       3.312   0.751   0.088  0.00  0.00    -0.092 F 
ENDROOT
TORSDOF 0
ENDMDL
