MODEL 1
REMARK minimizedAffinity -1.91241109
REMARK minimizedRMSD -1
REMARK  0 active torsions:
REMARK  status: ('A' for Active; 'I' for Inactive)
ROOT
ATOM      1  C   UNL d   1       1.330   2.149   0.921  0.00  0.00     0.124 A 
ATOM      2  C1  UNL d   1       2.028   0.951   0.980  0.00  0.00     0.062 A 
ATOM      3  C2  UNL d   1       1.401  -0.242   0.634  0.00  0.00     0.162 A 
ATOM      4  C3  UNL d   1       0.067  -0.244   0.225  0.00  0.00    -0.034 A 
ATOM      5  C4  UNL d   1      -0.629   0.965   0.170  0.00  0.00     0.162 A 
ATOM      6  C5  UNL d   1       0.002   2.155   0.517  0.00  0.00     0.062 A 
ATOM      7  F   UNL d   1      -0.674   3.312   0.460  0.00  0.00    -0.097 F 
ATOM      8  F1  UNL d   1      -1.913   1.000  -0.218  0.00  0.00    -0.096 F 
ATOM      9  I   UNL d   1      -0.875  -2.026  -0.293  0.00  0.00    -0.060 I 
ATOM     10  F2  UNL d   1       2.100  -1.385   0.699  0.00  0.00    -0.096 F 
ATOM     11  F3  UNL d   1       3.311   0.942   1.371  0.00  0.00    -0.097 F 
ATOM     12  F4  UNL d   1       1.936   3.296   1.256  0.00  0.00    -0.092 F 
ENDROOT
TORSDOF 0
ENDMDL
