MODEL 1
REMARK minimizedAffinity 0.859337449
REMARK minimizedRMSD -1
REMARK  0 active torsions:
REMARK  status: ('A' for Active; 'I' for Inactive)
ROOT
ATOM      1  C   UNL d   1       0.472   1.916   0.850  0.00  0.00     0.124 A 
ATOM      2  C1  UNL d   1      -0.897   1.689   0.809  0.00  0.00     0.062 A 
ATOM      3  C2  UNL d   1      -1.392   0.485   0.316  0.00  0.00     0.162 A 
ATOM      4  C3  UNL d   1      -0.517  -0.502  -0.140  0.00  0.00    -0.034 A 
ATOM      5  C4  UNL d   1       0.858  -0.265  -0.097  0.00  0.00     0.162 A 
ATOM      6  C5  UNL d   1       1.348   0.940   0.397  0.00  0.00     0.062 A 
ATOM      7  F   UNL d   1       2.670   1.158   0.436  0.00  0.00    -0.097 F 
ATOM      8  F1  UNL d   1       1.727  -1.192  -0.527  0.00  0.00    -0.096 F 
ATOM      9  I   UNL d   1      -1.253  -2.303  -0.879  0.00  0.00    -0.060 I 
ATOM     10  F2  UNL d   1      -2.719   0.292   0.288  0.00  0.00    -0.096 F 
ATOM     11  F3  UNL d   1      -1.745   2.631   1.245  0.00  0.00    -0.097 F 
ATOM     12  F4  UNL d   1       0.946   3.076   1.324  0.00  0.00    -0.092 F 
ENDROOT
TORSDOF 0
ENDMDL
