MODEL 1
REMARK minimizedAffinity 1.11382902
REMARK minimizedRMSD -1
REMARK  0 active torsions:
REMARK  status: ('A' for Active; 'I' for Inactive)
ROOT
ATOM      1  C   UNL d   1      -1.099   2.075   1.132  0.00  0.00     0.124 A 
ATOM      2  C1  UNL d   1       0.265   1.847   1.014  0.00  0.00     0.062 A 
ATOM      3  C2  UNL d   1       0.731   0.634   0.515  0.00  0.00     0.162 A 
ATOM      4  C3  UNL d   1      -0.168  -0.360   0.129  0.00  0.00    -0.034 A 
ATOM      5  C4  UNL d   1      -1.538  -0.124   0.252  0.00  0.00     0.162 A 
ATOM      6  C5  UNL d   1      -1.999   1.090   0.751  0.00  0.00     0.062 A 
ATOM      7  F   UNL d   1      -3.317   1.309   0.864  0.00  0.00    -0.097 F 
ATOM      8  F1  UNL d   1      -2.430  -1.058  -0.110  0.00  0.00    -0.096 F 
ATOM      9  I   UNL d   1       0.525  -2.175  -0.617  0.00  0.00    -0.060 I 
ATOM     10  F2  UNL d   1       2.055   0.440   0.412  0.00  0.00    -0.096 F 
ATOM     11  F3  UNL d   1       1.137   2.797   1.383  0.00  0.00    -0.097 F 
ATOM     12  F4  UNL d   1      -1.544   3.243   1.613  0.00  0.00    -0.092 F 
ENDROOT
TORSDOF 0
ENDMDL
