MODEL 1
REMARK minimizedAffinity -2.02050686
REMARK minimizedRMSD -1
REMARK  0 active torsions:
REMARK  status: ('A' for Active; 'I' for Inactive)
ROOT
ATOM      1  C   UNL d   1      -1.059  -0.852   0.809  0.00  0.00     0.124 A 
ATOM      2  C1  UNL d   1       0.130  -0.574   0.151  0.00  0.00     0.062 A 
ATOM      3  C2  UNL d   1       0.502   0.745  -0.096  0.00  0.00     0.162 A 
ATOM      4  C3  UNL d   1      -0.317   1.796   0.317  0.00  0.00    -0.034 A 
ATOM      5  C4  UNL d   1      -1.513   1.507   0.978  0.00  0.00     0.162 A 
ATOM      6  C5  UNL d   1      -1.879   0.188   1.222  0.00  0.00     0.062 A 
ATOM      7  F   UNL d   1      -3.029  -0.079   1.859  0.00  0.00    -0.097 F 
ATOM      8  F1  UNL d   1      -2.324   2.494   1.389  0.00  0.00    -0.096 F 
ATOM      9  I   UNL d   1       0.234   3.769  -0.049  0.00  0.00    -0.060 I 
ATOM     10  F2  UNL d   1       1.657   0.985  -0.734  0.00  0.00    -0.096 F 
ATOM     11  F3  UNL d   1       0.924  -1.577  -0.250  0.00  0.00    -0.097 F 
ATOM     12  F4  UNL d   1      -1.415  -2.122   1.045  0.00  0.00    -0.092 F 
ENDROOT
TORSDOF 0
ENDMDL
