MODEL 1
REMARK minimizedAffinity -0.212767676
REMARK minimizedRMSD -1
REMARK  0 active torsions:
REMARK  status: ('A' for Active; 'I' for Inactive)
ROOT
ATOM      1  C   UNL d   1       1.313   2.286   0.911  0.00  0.00     0.124 A 
ATOM      2  C1  UNL d   1       2.072   1.124   0.863  0.00  0.00     0.062 A 
ATOM      3  C2  UNL d   1       1.464  -0.099   0.598  0.00  0.00     0.162 A 
ATOM      4  C3  UNL d   1       0.088  -0.168   0.378  0.00  0.00    -0.034 A 
ATOM      5  C4  UNL d   1      -0.669   1.004   0.428  0.00  0.00     0.162 A 
ATOM      6  C5  UNL d   1      -0.056   2.225   0.694  0.00  0.00     0.062 A 
ATOM      7  F   UNL d   1      -0.791   3.345   0.739  0.00  0.00    -0.097 F 
ATOM      8  F1  UNL d   1      -1.994   0.974   0.221  0.00  0.00    -0.096 F 
ATOM      9  I   UNL d   1      -0.826  -1.995  -0.019  0.00  0.00    -0.060 I 
ATOM     10  F2  UNL d   1       2.222  -1.205   0.558  0.00  0.00    -0.096 F 
ATOM     11  F3  UNL d   1       3.395   1.181   1.074  0.00  0.00    -0.097 F 
ATOM     12  F4  UNL d   1       1.901   3.461   1.167  0.00  0.00    -0.092 F 
ENDROOT
TORSDOF 0
ENDMDL
