MODEL 1
REMARK minimizedAffinity -2.95045781
REMARK minimizedRMSD -1
REMARK  0 active torsions:
REMARK  status: ('A' for Active; 'I' for Inactive)
ROOT
ATOM      1  C   UNL d   1      -1.620   0.594   0.624  0.00  0.00     0.124 A 
ATOM      2  C1  UNL d   1      -0.667  -0.371   0.330  0.00  0.00     0.062 A 
ATOM      3  C2  UNL d   1       0.672  -0.014   0.199  0.00  0.00     0.162 A 
ATOM      4  C3  UNL d   1       1.066   1.314   0.363  0.00  0.00    -0.034 A 
ATOM      5  C4  UNL d   1       0.101   2.278   0.658  0.00  0.00     0.162 A 
ATOM      6  C5  UNL d   1      -1.236   1.917   0.788  0.00  0.00     0.062 A 
ATOM      7  F   UNL d   1      -2.156   2.850   1.072  0.00  0.00    -0.097 F 
ATOM      8  F1  UNL d   1       0.445   3.564   0.823  0.00  0.00    -0.096 F 
ATOM      9  I   UNL d   1       3.068   1.851   0.168  0.00  0.00    -0.060 I 
ATOM     10  F2  UNL d   1       1.572  -0.967  -0.086  0.00  0.00    -0.096 F 
ATOM     11  F3  UNL d   1      -1.036  -1.650   0.170  0.00  0.00    -0.097 F 
ATOM     12  F4  UNL d   1      -2.908   0.248   0.749  0.00  0.00    -0.092 F 
ENDROOT
TORSDOF 0
ENDMDL
