MODEL 1
REMARK minimizedAffinity -4.09984446
REMARK minimizedRMSD -1
REMARK  0 active torsions:
REMARK  status: ('A' for Active; 'I' for Inactive)
ROOT
ATOM      1  C   UNL d   1       0.373   3.122   0.401  0.00  0.00     0.124 A 
ATOM      2  C1  UNL d   1      -0.846   2.504   0.642  0.00  0.00     0.062 A 
ATOM      3  C2  UNL d   1      -0.983   1.131   0.462  0.00  0.00     0.162 A 
ATOM      4  C3  UNL d   1       0.103   0.365   0.039  0.00  0.00    -0.034 A 
ATOM      5  C4  UNL d   1       1.326   0.993  -0.203  0.00  0.00     0.162 A 
ATOM      6  C5  UNL d   1       1.458   2.366  -0.021  0.00  0.00     0.062 A 
ATOM      7  F   UNL d   1       2.637   2.961  -0.255  0.00  0.00    -0.097 F 
ATOM      8  F1  UNL d   1       2.391   0.287  -0.610  0.00  0.00    -0.096 F 
ATOM      9  I   UNL d   1      -0.097  -1.689  -0.232  0.00  0.00    -0.060 I 
ATOM     10  F2  UNL d   1      -2.173   0.561   0.703  0.00  0.00    -0.096 F 
ATOM     11  F3  UNL d   1      -1.896   3.233   1.049  0.00  0.00    -0.097 F 
ATOM     12  F4  UNL d   1       0.502   4.444   0.574  0.00  0.00    -0.092 F 
ENDROOT
TORSDOF 0
ENDMDL
