MODEL 1
REMARK minimizedAffinity 11.1443033
REMARK minimizedRMSD -1
REMARK  0 active torsions:
REMARK  status: ('A' for Active; 'I' for Inactive)
ROOT
ATOM      1  C   UNL d   1      -1.168   2.415   2.170  0.00  0.00     0.124 A 
ATOM      2  C1  UNL d   1      -0.002   1.688   1.974  0.00  0.00     0.062 A 
ATOM      3  C2  UNL d   1      -0.030   0.505   1.241  0.00  0.00     0.162 A 
ATOM      4  C3  UNL d   1      -1.228   0.042   0.698  0.00  0.00    -0.034 A 
ATOM      5  C4  UNL d   1      -2.397   0.778   0.901  0.00  0.00     0.162 A 
ATOM      6  C5  UNL d   1      -2.364   1.960   1.634  0.00  0.00     0.062 A 
ATOM      7  F   UNL d   1      -3.492   2.661   1.822  0.00  0.00    -0.097 F 
ATOM      8  F1  UNL d   1      -3.566   0.361   0.392  0.00  0.00    -0.096 F 
ATOM      9  I   UNL d   1      -1.274  -1.727  -0.398  0.00  0.00    -0.060 I 
ATOM     10  F2  UNL d   1       1.112  -0.177   1.067  0.00  0.00    -0.096 F 
ATOM     11  F3  UNL d   1       1.154   2.126   2.492  0.00  0.00    -0.097 F 
ATOM     12  F4  UNL d   1      -1.139   3.553   2.877  0.00  0.00    -0.092 F 
ENDROOT
TORSDOF 0
ENDMDL
