MODEL 1
REMARK minimizedAffinity -0.564566016
REMARK minimizedRMSD -1
REMARK  0 active torsions:
REMARK  status: ('A' for Active; 'I' for Inactive)
ROOT
ATOM      1  C   UNL d   1       1.784   2.432   0.268  0.00  0.00     0.124 A 
ATOM      2  C1  UNL d   1       0.542   2.371  -0.348  0.00  0.00     0.062 A 
ATOM      3  C2  UNL d   1      -0.077   1.141  -0.555  0.00  0.00     0.162 A 
ATOM      4  C3  UNL d   1       0.545  -0.038  -0.145  0.00  0.00    -0.034 A 
ATOM      5  C4  UNL d   1       1.795   0.032   0.473  0.00  0.00     0.162 A 
ATOM      6  C5  UNL d   1       2.410   1.263   0.677  0.00  0.00     0.062 A 
ATOM      7  F   UNL d   1       3.610   1.320   1.272  0.00  0.00    -0.097 F 
ATOM      8  F1  UNL d   1       2.422  -1.083   0.879  0.00  0.00    -0.096 F 
ATOM      9  I   UNL d   1      -0.377  -1.878  -0.453  0.00  0.00    -0.060 I 
ATOM     10  F2  UNL d   1      -1.278   1.112  -1.152  0.00  0.00    -0.096 F 
ATOM     11  F3  UNL d   1      -0.064   3.499  -0.745  0.00  0.00    -0.097 F 
ATOM     12  F4  UNL d   1       2.378   3.616   0.465  0.00  0.00    -0.092 F 
ENDROOT
TORSDOF 0
ENDMDL
