MODEL 1
REMARK minimizedAffinity -5.35508966
REMARK minimizedRMSD -1
REMARK  0 active torsions:
REMARK  status: ('A' for Active; 'I' for Inactive)
ROOT
ATOM      1  C   UNL d   1      -1.953   0.735   0.921  0.00  0.00     0.124 A 
ATOM      2  C1  UNL d   1      -1.051  -0.313   1.034  0.00  0.00     0.062 A 
ATOM      3  C2  UNL d   1       0.318  -0.070   0.961  0.00  0.00     0.162 A 
ATOM      4  C3  UNL d   1       0.793   1.228   0.775  0.00  0.00    -0.034 A 
ATOM      5  C4  UNL d   1      -0.121   2.277   0.661  0.00  0.00     0.162 A 
ATOM      6  C5  UNL d   1      -1.487   2.029   0.735  0.00  0.00     0.062 A 
ATOM      7  F   UNL d   1      -2.358   3.044   0.625  0.00  0.00    -0.097 F 
ATOM      8  F1  UNL d   1       0.302   3.538   0.481  0.00  0.00    -0.096 F 
ATOM      9  I   UNL d   1       2.839   1.596   0.665  0.00  0.00    -0.060 I 
ATOM     10  F2  UNL d   1       1.167  -1.103   1.073  0.00  0.00    -0.096 F 
ATOM     11  F3  UNL d   1      -1.498  -1.565   1.213  0.00  0.00    -0.097 F 
ATOM     12  F4  UNL d   1      -3.269   0.498   0.991  0.00  0.00    -0.092 F 
ENDROOT
TORSDOF 0
ENDMDL
