MODEL 1
REMARK minimizedAffinity -1.95639443
REMARK minimizedRMSD -1
REMARK  0 active torsions:
REMARK  status: ('A' for Active; 'I' for Inactive)
ROOT
ATOM      1  C   UNL d   1       2.418   1.264  -0.033  0.00  0.00     0.124 A 
ATOM      2  C1  UNL d   1       1.287   2.049  -0.213  0.00  0.00     0.062 A 
ATOM      3  C2  UNL d   1       0.042   1.591   0.208  0.00  0.00     0.162 A 
ATOM      4  C3  UNL d   1      -0.079   0.341   0.815  0.00  0.00    -0.034 A 
ATOM      5  C4  UNL d   1       1.063  -0.443   0.992  0.00  0.00     0.162 A 
ATOM      6  C5  UNL d   1       2.305   0.020   0.569  0.00  0.00     0.062 A 
ATOM      7  F   UNL d   1       3.396  -0.740   0.744  0.00  0.00    -0.097 F 
ATOM      8  F1  UNL d   1       0.982  -1.650   1.572  0.00  0.00    -0.096 F 
ATOM      9  I   UNL d   1      -1.938  -0.348   1.447  0.00  0.00    -0.060 I 
ATOM     10  F2  UNL d   1      -1.033   2.371   0.021  0.00  0.00    -0.096 F 
ATOM     11  F3  UNL d   1       1.394   3.252  -0.796  0.00  0.00    -0.097 F 
ATOM     12  F4  UNL d   1       3.614   1.707  -0.441  0.00  0.00    -0.092 F 
ENDROOT
TORSDOF 0
ENDMDL
