MODEL 1
REMARK minimizedAffinity 0.363855451
REMARK minimizedRMSD -1
REMARK  0 active torsions:
REMARK  status: ('A' for Active; 'I' for Inactive)
ROOT
ATOM      1  C1  BNZ d   1       1.681   0.275  -1.681  0.00  0.00     0.000 A 
ATOM      2  C2  BNZ d   1       1.399   0.222  -0.342  0.00  0.00     0.000 A 
ATOM      3  C3  BNZ d   1       2.363   0.498   0.587  0.00  0.00     0.000 A 
ATOM      4  C4  BNZ d   1       3.615   0.785   0.178  0.00  0.00     0.000 A 
ATOM      5  C5  BNZ d   1       3.917   0.833  -1.168  0.00  0.00     0.000 A 
ATOM      6  C6  BNZ d   1       2.935   0.593  -2.102  0.00  0.00     0.000 A 
ENDROOT
TORSDOF 0
ENDMDL
