MODEL 1
REMARK minimizedAffinity -2.90230298
REMARK minimizedRMSD -1
REMARK  0 active torsions:
REMARK  status: ('A' for Active; 'I' for Inactive)
ROOT
ATOM      1  C1  BNZ d   1       3.451  -0.039  -2.366  0.00  0.00     0.000 A 
ATOM      2  C2  BNZ d   1       3.969   0.546  -1.242  0.00  0.00     0.000 A 
ATOM      3  C3  BNZ d   1       5.220   1.097  -1.252  0.00  0.00     0.000 A 
ATOM      4  C4  BNZ d   1       5.966   1.026  -2.374  0.00  0.00     0.000 A 
ATOM      5  C5  BNZ d   1       5.461   0.431  -3.513  0.00  0.00     0.000 A 
ATOM      6  C6  BNZ d   1       4.187  -0.087  -3.510  0.00  0.00     0.000 A 
ENDROOT
TORSDOF 0
ENDMDL
