MODEL 1
REMARK minimizedAffinity 3.41283989
REMARK minimizedRMSD -1
REMARK  0 active torsions:
REMARK  status: ('A' for Active; 'I' for Inactive)
ROOT
ATOM      1  C1  BNZ d   1      -1.015  -0.416  -1.710  0.00  0.00     0.000 A 
ATOM      2  C2  BNZ d   1       0.142  -1.061  -1.361  0.00  0.00     0.000 A 
ATOM      3  C3  BNZ d   1       1.262  -0.355  -1.022  0.00  0.00     0.000 A 
ATOM      4  C4  BNZ d   1       1.236   0.993  -1.070  0.00  0.00     0.000 A 
ATOM      5  C5  BNZ d   1       0.080   1.657  -1.429  0.00  0.00     0.000 A 
ATOM      6  C6  BNZ d   1      -1.057   0.944  -1.732  0.00  0.00     0.000 A 
ENDROOT
TORSDOF 0
ENDMDL
