MODEL 1
REMARK minimizedAffinity 0.570928574
REMARK minimizedRMSD -1
REMARK  0 active torsions:
REMARK  status: ('A' for Active; 'I' for Inactive)
ROOT
ATOM      1  C1  BNZ d   1      -3.976   1.323  -0.126  0.00  0.00     0.000 A 
ATOM      2  C2  BNZ d   1      -3.656   2.492   0.511  0.00  0.00     0.000 A 
ATOM      3  C3  BNZ d   1      -4.205   2.801   1.724  0.00  0.00     0.000 A 
ATOM      4  C4  BNZ d   1      -5.103   1.961   2.278  0.00  0.00     0.000 A 
ATOM      5  C5  BNZ d   1      -5.443   0.783   1.644  0.00  0.00     0.000 A 
ATOM      6  C6  BNZ d   1      -4.858   0.457   0.442  0.00  0.00     0.000 A 
ENDROOT
TORSDOF 0
ENDMDL
