MODEL 1
REMARK minimizedAffinity 1.65017223
REMARK minimizedRMSD -1
REMARK  0 active torsions:
REMARK  status: ('A' for Active; 'I' for Inactive)
ROOT
ATOM      1  C1  BNZ d   1       3.752   0.776   0.223  0.00  0.00     0.000 A 
ATOM      2  C2  BNZ d   1       3.208   0.464  -0.994  0.00  0.00     0.000 A 
ATOM      3  C3  BNZ d   1       3.723   0.989  -2.146  0.00  0.00     0.000 A 
ATOM      4  C4  BNZ d   1       4.754   1.856  -2.077  0.00  0.00     0.000 A 
ATOM      5  C5  BNZ d   1       5.307   2.188  -0.857  0.00  0.00     0.000 A 
ATOM      6  C6  BNZ d   1       4.811   1.627   0.298  0.00  0.00     0.000 A 
ENDROOT
TORSDOF 0
ENDMDL
