MODEL 1
REMARK minimizedAffinity 7.39349937
REMARK minimizedRMSD -1
REMARK  0 active torsions:
REMARK  status: ('A' for Active; 'I' for Inactive)
ROOT
ATOM      1  C1  BNZ d   1       2.396  -0.364   0.022  0.00  0.00     0.000 A 
ATOM      2  C2  BNZ d   1       2.224  -0.031  -1.295  0.00  0.00     0.000 A 
ATOM      3  C3  BNZ d   1       3.048   0.875  -1.902  0.00  0.00     0.000 A 
ATOM      4  C4  BNZ d   1       4.017   1.476  -1.181  0.00  0.00     0.000 A 
ATOM      5  C5  BNZ d   1       4.198   1.157   0.150  0.00  0.00     0.000 A 
ATOM      6  C6  BNZ d   1       3.391   0.216   0.747  0.00  0.00     0.000 A 
ENDROOT
TORSDOF 0
ENDMDL
