MODEL 1
REMARK minimizedAffinity -2.29957438
REMARK minimizedRMSD -1
REMARK  0 active torsions:
REMARK  status: ('A' for Active; 'I' for Inactive)
ROOT
ATOM      1  C   UNL d   1       3.368   2.400  -5.971  0.00  0.00     0.172 C 
ATOM      2  N   UNL d   1       3.229   3.837  -5.981  0.00  0.00    -0.070 N 
ATOM      3  C1  UNL d   1       2.044   4.524  -5.994  0.00  0.00    -0.004 A 
ATOM      4  C2  UNL d   1       2.337   5.870  -6.000  0.00  0.00    -0.047 A 
ATOM      5  C3  UNL d   1       3.747   5.997  -5.992  0.00  0.00    -0.047 A 
ATOM      6  C4  UNL d   1       4.274   4.723  -5.980  0.00  0.00    -0.004 A 
ENDROOT
TORSDOF 0
ENDMDL
