MODEL 1
REMARK minimizedAffinity 4.86618423
REMARK minimizedRMSD -1
REMARK  0 active torsions:
REMARK  status: ('A' for Active; 'I' for Inactive)
ROOT
ATOM      1  C   UNL d   1       0.999  -0.828  -0.111  0.00  0.00     0.172 C 
ATOM      2  N   UNL d   1      -0.213  -0.572   0.631  0.00  0.00    -0.070 N 
ATOM      3  C1  UNL d   1      -1.393  -0.123   0.103  0.00  0.00    -0.004 A 
ATOM      4  C2  UNL d   1      -2.301  -0.008   1.134  0.00  0.00    -0.047 A 
ATOM      5  C3  UNL d   1      -1.642  -0.401   2.323  0.00  0.00    -0.047 A 
ATOM      6  C4  UNL d   1      -0.351  -0.745   1.983  0.00  0.00    -0.004 A 
ENDROOT
TORSDOF 0
ENDMDL
