MODEL 1
REMARK minimizedAffinity 2.44649839
REMARK minimizedRMSD -1
REMARK  0 active torsions:
REMARK  status: ('A' for Active; 'I' for Inactive)
ROOT
ATOM      1  C   UNL d   1       2.849   6.000   5.954  0.00  0.00     0.172 C 
ATOM      2  N   UNL d   1       1.591   5.369   5.630  0.00  0.00    -0.070 N 
ATOM      3  C1  UNL d   1       0.378   6.000   5.553  0.00  0.00    -0.004 A 
ATOM      4  C2  UNL d   1      -0.569   5.055   5.220  0.00  0.00    -0.047 A 
ATOM      5  C3  UNL d   1       0.098   3.813   5.095  0.00  0.00    -0.047 A 
ATOM      6  C4  UNL d   1       1.434   4.036   5.354  0.00  0.00    -0.004 A 
ENDROOT
TORSDOF 0
ENDMDL
