MODEL 1
REMARK minimizedAffinity -0.469237119
REMARK minimizedRMSD -1
REMARK  0 active torsions:
REMARK  status: ('A' for Active; 'I' for Inactive)
ROOT
ATOM      1  C   UNL d   1       4.226   6.000   2.660  0.00  0.00     0.172 C 
ATOM      2  N   UNL d   1       3.140   5.999   3.612  0.00  0.00    -0.070 N 
ATOM      3  C1  UNL d   1       1.806   5.998   3.302  0.00  0.00    -0.004 A 
ATOM      4  C2  UNL d   1       1.098   5.997   4.484  0.00  0.00    -0.047 A 
ATOM      5  C3  UNL d   1       2.039   5.997   5.541  0.00  0.00    -0.047 A 
ATOM      6  C4  UNL d   1       3.295   5.998   4.973  0.00  0.00    -0.004 A 
ENDROOT
TORSDOF 0
ENDMDL
