MODEL 1
REMARK minimizedAffinity 1.49625087
REMARK minimizedRMSD -1
REMARK  0 active torsions:
REMARK  status: ('A' for Active; 'I' for Inactive)
ROOT
ATOM      1  C   UNL d   1       1.752  -1.398   0.203  0.00  0.00     0.172 C 
ATOM      2  N   UNL d   1       0.392  -0.914   0.186  0.00  0.00    -0.070 N 
ATOM      3  C1  UNL d   1      -0.368  -0.708  -0.935  0.00  0.00    -0.004 A 
ATOM      4  C2  UNL d   1      -1.601  -0.246  -0.529  0.00  0.00    -0.047 A 
ATOM      5  C3  UNL d   1      -1.581  -0.169   0.884  0.00  0.00    -0.047 A 
ATOM      6  C4  UNL d   1      -0.335  -0.589   1.300  0.00  0.00    -0.004 A 
ENDROOT
TORSDOF 0
ENDMDL
