MODEL 1
REMARK minimizedAffinity -1.81601417
REMARK minimizedRMSD -1
REMARK  0 active torsions:
REMARK  status: ('A' for Active; 'I' for Inactive)
ROOT
ATOM      1  C   UNL d   1      -4.485   3.189  -3.222  0.00  0.00     0.172 C 
ATOM      2  N   UNL d   1      -3.104   2.769  -3.175  0.00  0.00    -0.070 N 
ATOM      3  C1  UNL d   1      -2.648   1.578  -2.676  0.00  0.00    -0.004 A 
ATOM      4  C2  UNL d   1      -1.277   1.560  -2.814  0.00  0.00    -0.047 A 
ATOM      5  C3  UNL d   1      -0.895   2.783  -3.415  0.00  0.00    -0.047 A 
ATOM      6  C4  UNL d   1      -2.046   3.512  -3.628  0.00  0.00    -0.004 A 
ENDROOT
TORSDOF 0
ENDMDL
