MODEL 1
REMARK minimizedAffinity 4.94810152
REMARK minimizedRMSD -1
REMARK  0 active torsions:
REMARK  status: ('A' for Active; 'I' for Inactive)
ROOT
ATOM      1  C   UNL d   1       1.524  -0.696  -0.791  0.00  0.00     0.172 C 
ATOM      2  N   UNL d   1       0.539   0.013  -0.009  0.00  0.00    -0.070 N 
ATOM      3  C1  UNL d   1       0.387   1.373   0.041  0.00  0.00    -0.004 A 
ATOM      4  C2  UNL d   1      -0.657   1.650   0.896  0.00  0.00    -0.047 A 
ATOM      5  C3  UNL d   1      -1.150   0.414   1.377  0.00  0.00    -0.047 A 
ATOM      6  C4  UNL d   1      -0.392  -0.583   0.801  0.00  0.00    -0.004 A 
ENDROOT
TORSDOF 0
ENDMDL
