MODEL 1
REMARK minimizedAffinity 0.337796688
REMARK minimizedRMSD -1
REMARK  0 active torsions:
REMARK  status: ('A' for Active; 'I' for Inactive)
ROOT
ATOM      1  C   UNL d   1       3.480   5.968   2.921  0.00  0.00     0.172 C 
ATOM      2  N   UNL d   1       2.499   5.974   3.981  0.00  0.00    -0.070 N 
ATOM      3  C1  UNL d   1       2.774   5.967   5.323  0.00  0.00    -0.004 A 
ATOM      4  C2  UNL d   1       1.574   5.978   5.999  0.00  0.00    -0.047 A 
ATOM      5  C3  UNL d   1       0.542   5.990   5.031  0.00  0.00    -0.047 A 
ATOM      6  C4  UNL d   1       1.143   5.987   3.790  0.00  0.00    -0.004 A 
ENDROOT
TORSDOF 0
ENDMDL
