MODEL 1
REMARK minimizedAffinity 2.06273317
REMARK minimizedRMSD -1
REMARK  0 active torsions:
REMARK  status: ('A' for Active; 'I' for Inactive)
ROOT
ATOM      1  C   UNL d   1      -1.463  -0.127   0.214  0.00  0.00     0.172 C 
ATOM      2  N   UNL d   1      -0.144  -0.496   0.670  0.00  0.00    -0.070 N 
ATOM      3  C1  UNL d   1       0.902  -0.870  -0.131  0.00  0.00    -0.004 A 
ATOM      4  C2  UNL d   1       1.981  -1.141   0.683  0.00  0.00    -0.047 A 
ATOM      5  C3  UNL d   1       1.568  -0.923   2.019  0.00  0.00    -0.047 A 
ATOM      6  C4  UNL d   1       0.249  -0.525   1.982  0.00  0.00    -0.004 A 
ENDROOT
TORSDOF 0
ENDMDL
