MODEL 1
REMARK minimizedAffinity 7.048244
REMARK minimizedRMSD -1
REMARK  0 active torsions:
REMARK  status: ('A' for Active; 'I' for Inactive)
ROOT
ATOM      1  N1  IND d   1      -5.870   1.927  -0.228  0.00  0.00    -0.196 N 
ATOM      2  C2  IND d   1      -5.998   1.407   1.031  0.00  0.00     0.054 A 
ATOM      3  C3  IND d   1      -4.782   1.120   1.547  0.00  0.00    -0.031 A 
ATOM      4  C4  IND d   1      -2.444   1.515   0.543  0.00  0.00     0.051 A 
ATOM      5  C5  IND d   1      -1.818   1.932  -0.598  0.00  0.00    -0.031 A 
ATOM      6  C6  IND d   1      -2.525   2.380  -1.695  0.00  0.00     0.015 A 
ATOM      7  C7  IND d   1      -3.890   2.439  -1.688  0.00  0.00    -0.016 A 
ATOM      8  C8  IND d   1      -4.529   2.010  -0.533  0.00  0.00    -0.047 A 
ATOM      9  C9  IND d   1      -3.819   1.514   0.567  0.00  0.00    -0.096 A 
ATOM     10  HN1 IND d   1      -6.518   2.162  -0.742  0.00  0.00     0.298 HD
ENDROOT
TORSDOF 0
ENDMDL
