MODEL 1
REMARK minimizedAffinity 0.858171165
REMARK minimizedRMSD -1
REMARK  0 active torsions:
REMARK  status: ('A' for Active; 'I' for Inactive)
ROOT
ATOM      1  N1  IND d   1      -4.921   1.961   0.203  0.00  0.00    -0.196 N 
ATOM      2  C2  IND d   1      -5.659   1.143   1.012  0.00  0.00     0.054 A 
ATOM      3  C3  IND d   1      -4.898   0.124   1.471  0.00  0.00    -0.031 A 
ATOM      4  C4  IND d   1      -2.392  -0.339   1.105  0.00  0.00     0.051 A 
ATOM      5  C5  IND d   1      -1.304   0.110   0.411  0.00  0.00    -0.031 A 
ATOM      6  C6  IND d   1      -1.367   1.223  -0.403  0.00  0.00     0.015 A 
ATOM      7  C7  IND d   1      -2.522   1.938  -0.544  0.00  0.00    -0.016 A 
ATOM      8  C8  IND d   1      -3.631   1.481   0.154  0.00  0.00    -0.047 A 
ATOM      9  C9  IND d   1      -3.584   0.328   0.948  0.00  0.00    -0.096 A 
ATOM     10  HN1 IND d   1      -5.214   2.658  -0.206  0.00  0.00     0.298 HD
ENDROOT
TORSDOF 0
ENDMDL
