MODEL 1
REMARK minimizedAffinity 7.22189236
REMARK minimizedRMSD -1
REMARK  0 active torsions:
REMARK  status: ('A' for Active; 'I' for Inactive)
ROOT
ATOM      1  N1  IND d   1      -1.679  -3.879  -3.666  0.00  0.00    -0.196 N 
ATOM      2  C2  IND d   1      -0.817  -4.934  -3.548  0.00  0.00     0.054 A 
ATOM      3  C3  IND d   1      -0.860  -5.438  -2.294  0.00  0.00    -0.031 A 
ATOM      4  C4  IND d   1      -2.344  -4.753  -0.305  0.00  0.00     0.051 A 
ATOM      5  C5  IND d   1      -3.264  -3.818   0.081  0.00  0.00    -0.031 A 
ATOM      6  C6  IND d   1      -3.713  -2.838  -0.780  0.00  0.00     0.015 A 
ATOM      7  C7  IND d   1      -3.266  -2.763  -2.069  0.00  0.00    -0.016 A 
ATOM      8  C8  IND d   1      -2.327  -3.706  -2.463  0.00  0.00    -0.047 A 
ATOM      9  C9  IND d   1      -1.835  -4.677  -1.580  0.00  0.00    -0.096 A 
ATOM     10  HN1 IND d   1      -1.796  -3.404  -4.373  0.00  0.00     0.298 HD
ENDROOT
TORSDOF 0
ENDMDL
