MODEL 1
REMARK minimizedAffinity 5.23850107
REMARK minimizedRMSD -1
REMARK  0 active torsions:
REMARK  status: ('A' for Active; 'I' for Inactive)
ROOT
ATOM      1  N1  IND d   1      -4.524   2.604   0.117  0.00  0.00    -0.196 N 
ATOM      2  C2  IND d   1      -5.804   2.188   0.359  0.00  0.00     0.054 A 
ATOM      3  C3  IND d   1      -5.803   0.936   0.869  0.00  0.00    -0.031 A 
ATOM      4  C4  IND d   1      -3.813  -0.579   1.482  0.00  0.00     0.051 A 
ATOM      5  C5  IND d   1      -2.450  -0.649   1.409  0.00  0.00    -0.031 A 
ATOM      6  C6  IND d   1      -1.694   0.383   0.893  0.00  0.00     0.015 A 
ATOM      7  C7  IND d   1      -2.274   1.534   0.440  0.00  0.00    -0.016 A 
ATOM      8  C8  IND d   1      -3.658   1.607   0.506  0.00  0.00    -0.047 A 
ATOM      9  C9  IND d   1      -4.434   0.545   0.989  0.00  0.00    -0.096 A 
ATOM     10  HN1 IND d   1      -4.299   3.361  -0.222  0.00  0.00     0.298 HD
ENDROOT
TORSDOF 0
ENDMDL
