MODEL 1
REMARK minimizedAffinity 9.27842331
REMARK minimizedRMSD -1
REMARK  0 active torsions:
REMARK  status: ('A' for Active; 'I' for Inactive)
ROOT
ATOM      1  N1  IND d   1      -3.247   2.715  -0.884  0.00  0.00    -0.196 N 
ATOM      2  C2  IND d   1      -1.945   2.336  -1.059  0.00  0.00     0.054 A 
ATOM      3  C3  IND d   1      -1.693   1.194  -0.381  0.00  0.00    -0.031 A 
ATOM      4  C4  IND d   1      -3.294  -0.279   0.995  0.00  0.00     0.051 A 
ATOM      5  C5  IND d   1      -4.573  -0.325   1.473  0.00  0.00    -0.031 A 
ATOM      6  C6  IND d   1      -5.496   0.659   1.181  0.00  0.00     0.015 A 
ATOM      7  C7  IND d   1      -5.175   1.724   0.388  0.00  0.00    -0.016 A 
ATOM      8  C8  IND d   1      -3.874   1.777  -0.093  0.00  0.00    -0.047 A 
ATOM      9  C9  IND d   1      -2.922   0.804   0.235  0.00  0.00    -0.096 A 
ATOM     10  HN1 IND d   1      -3.613   3.420  -1.213  0.00  0.00     0.298 HD
ENDROOT
TORSDOF 0
ENDMDL
