MODEL 1
REMARK minimizedAffinity -1.09657502
REMARK minimizedRMSD -1
REMARK  0 active torsions:
REMARK  status: ('A' for Active; 'I' for Inactive)
ROOT
ATOM      1  N1  IND d   1      -4.772   2.690   0.741  0.00  0.00    -0.196 N 
ATOM      2  C2  IND d   1      -5.999   2.217   1.116  0.00  0.00     0.054 A 
ATOM      3  C3  IND d   1      -5.909   0.920   1.487  0.00  0.00    -0.031 A 
ATOM      4  C4  IND d   1      -3.834  -0.594   1.654  0.00  0.00     0.051 A 
ATOM      5  C5  IND d   1      -2.494  -0.619   1.384  0.00  0.00    -0.031 A 
ATOM      6  C6  IND d   1      -1.832   0.480   0.878  0.00  0.00     0.015 A 
ATOM      7  C7  IND d   1      -2.485   1.655   0.633  0.00  0.00    -0.016 A 
ATOM      8  C8  IND d   1      -3.847   1.682   0.900  0.00  0.00    -0.047 A 
ATOM      9  C9  IND d   1      -4.532   0.556   1.373  0.00  0.00    -0.096 A 
ATOM     10  HN1 IND d   1      -4.607   3.484   0.455  0.00  0.00     0.298 HD
ENDROOT
TORSDOF 0
ENDMDL
