MODEL 1
REMARK minimizedAffinity 11.9376802
REMARK minimizedRMSD -1
REMARK  0 active torsions:
REMARK  status: ('A' for Active; 'I' for Inactive)
ROOT
ATOM      1  N1  IND d   1      -3.067  -4.679  -2.206  0.00  0.00    -0.196 N 
ATOM      2  C2  IND d   1      -2.818  -3.386  -2.572  0.00  0.00     0.054 A 
ATOM      3  C3  IND d   1      -2.204  -2.723  -1.566  0.00  0.00    -0.031 A 
ATOM      4  C4  IND d   1      -1.421  -3.591   0.727  0.00  0.00     0.051 A 
ATOM      5  C5  IND d   1      -1.459  -4.696   1.531  0.00  0.00    -0.031 A 
ATOM      6  C6  IND d   1      -2.043  -5.876   1.120  0.00  0.00     0.015 A 
ATOM      7  C7  IND d   1      -2.605  -6.000  -0.119  0.00  0.00    -0.016 A 
ATOM      8  C8  IND d   1      -2.575  -4.878  -0.935  0.00  0.00    -0.047 A 
ATOM      9  C9  IND d   1      -2.021  -3.664  -0.508  0.00  0.00    -0.096 A 
ATOM     10  HN1 IND d   1      -3.464  -5.270  -2.689  0.00  0.00     0.298 HD
ENDROOT
TORSDOF 0
ENDMDL
