MODEL 1
REMARK minimizedAffinity 2.38459492
REMARK minimizedRMSD -1
REMARK  0 active torsions:
REMARK  status: ('A' for Active; 'I' for Inactive)
ROOT
ATOM      1  N1  IND d   1       4.492   4.668   5.130  0.00  0.00    -0.196 N 
ATOM      2  C2  IND d   1       4.415   5.946   4.649  0.00  0.00     0.054 A 
ATOM      3  C3  IND d   1       4.876   6.000   3.380  0.00  0.00    -0.031 A 
ATOM      4  C4  IND d   1       5.710   4.096   1.860  0.00  0.00     0.051 A 
ATOM      5  C5  IND d   1       5.998   2.760   1.867  0.00  0.00    -0.031 A 
ATOM      6  C6  IND d   1       5.793   1.976   2.984  0.00  0.00     0.015 A 
ATOM      7  C7  IND d   1       5.278   2.498   4.136  0.00  0.00    -0.016 A 
ATOM      8  C8  IND d   1       4.991   3.856   4.135  0.00  0.00    -0.047 A 
ATOM      9  C9  IND d   1       5.237   4.665   3.019  0.00  0.00    -0.096 A 
ATOM     10  HN1 IND d   1       4.268   4.415   5.920  0.00  0.00     0.298 HD
ENDROOT
TORSDOF 0
ENDMDL
