MODEL 1
REMARK minimizedAffinity 11.370903
REMARK minimizedRMSD -1
REMARK  0 active torsions:
REMARK  status: ('A' for Active; 'I' for Inactive)
ROOT
ATOM      1  N1  IND d   1       5.061   1.536   1.628  0.00  0.00    -0.196 N 
ATOM      2  C2  IND d   1       5.436   2.848   1.703  0.00  0.00     0.054 A 
ATOM      3  C3  IND d   1       4.907   3.548   0.675  0.00  0.00    -0.031 A 
ATOM      4  C4  IND d   1       3.314   2.764  -1.189  0.00  0.00     0.051 A 
ATOM      5  C5  IND d   1       2.718   1.643  -1.697  0.00  0.00    -0.031 A 
ATOM      6  C6  IND d   1       2.874   0.405  -1.108  0.00  0.00     0.015 A 
ATOM      7  C7  IND d   1       3.626   0.242   0.021  0.00  0.00    -0.016 A 
ATOM      8  C8  IND d   1       4.238   1.377   0.535  0.00  0.00    -0.047 A 
ATOM      9  C9  IND d   1       4.118   2.629  -0.082  0.00  0.00    -0.096 A 
ATOM     10  HN1 IND d   1       5.300   0.914   2.172  0.00  0.00     0.298 HD
ENDROOT
TORSDOF 0
ENDMDL
