MODEL 1
REMARK minimizedAffinity 21.0585289
REMARK minimizedRMSD -1
REMARK  0 active torsions:
REMARK  status: ('A' for Active; 'I' for Inactive)
ROOT
ATOM      1  N1  IND d   1       6.000   4.750   5.889  0.00  0.00    -0.196 N 
ATOM      2  C2  IND d   1       5.426   5.977   5.705  0.00  0.00     0.054 A 
ATOM      3  C3  IND d   1       4.720   5.998   4.552  0.00  0.00    -0.031 A 
ATOM      4  C4  IND d   1       4.287   4.102   2.865  0.00  0.00     0.051 A 
ATOM      5  C5  IND d   1       4.632   2.810   2.585  0.00  0.00    -0.031 A 
ATOM      6  C6  IND d   1       5.465   2.082   3.410  0.00  0.00     0.015 A 
ATOM      7  C7  IND d   1       5.978   2.619   4.557  0.00  0.00    -0.016 A 
ATOM      8  C8  IND d   1       5.635   3.934   4.841  0.00  0.00    -0.047 A 
ATOM      9  C9  IND d   1       4.825   4.691   3.985  0.00  0.00    -0.096 A 
ATOM     10  HN1 IND d   1       6.504   4.526   6.548  0.00  0.00     0.298 HD
ENDROOT
TORSDOF 0
ENDMDL
