MODEL 1
REMARK minimizedAffinity 0.388924062
REMARK minimizedRMSD -1
REMARK  0 active torsions:
REMARK  status: ('A' for Active; 'I' for Inactive)
ROOT
ATOM      1  N1  IND d   1      -2.192  -5.443  -2.955  0.00  0.00    -0.196 N 
ATOM      2  C2  IND d   1      -2.309  -4.951  -1.685  0.00  0.00     0.054 A 
ATOM      3  C3  IND d   1      -1.086  -4.748  -1.145  0.00  0.00    -0.031 A 
ATOM      4  C4  IND d   1       1.241  -5.057  -2.202  0.00  0.00     0.051 A 
ATOM      5  C5  IND d   1       1.859  -5.520  -3.330  0.00  0.00    -0.031 A 
ATOM      6  C6  IND d   1       1.143  -5.988  -4.413  0.00  0.00     0.015 A 
ATOM      7  C7  IND d   1      -0.223  -6.000  -4.413  0.00  0.00    -0.016 A 
ATOM      8  C8  IND d   1      -0.854  -5.537  -3.267  0.00  0.00    -0.047 A 
ATOM      9  C9  IND d   1      -0.133  -5.101  -2.148  0.00  0.00    -0.096 A 
ATOM     10  HN1 IND d   1      -2.845  -5.659  -3.472  0.00  0.00     0.298 HD
ENDROOT
TORSDOF 0
ENDMDL
