MODEL 1
REMARK minimizedAffinity 13.6976051
REMARK minimizedRMSD -1
REMARK  0 active torsions:
REMARK  status: ('A' for Active; 'I' for Inactive)
ROOT
ATOM      1  N1  IND d   1       0.518   2.305   2.872  0.00  0.00    -0.196 N 
ATOM      2  C2  IND d   1      -0.784   2.200   2.468  0.00  0.00     0.054 A 
ATOM      3  C3  IND d   1      -0.846   1.776   1.186  0.00  0.00    -0.031 A 
ATOM      4  C4  IND d   1       1.059   1.098  -0.407  0.00  0.00     0.051 A 
ATOM      5  C5  IND d   1       2.422   1.061  -0.502  0.00  0.00    -0.031 A 
ATOM      6  C6  IND d   1       3.236   1.441   0.545  0.00  0.00     0.015 A 
ATOM      7  C7  IND d   1       2.716   1.864   1.735  0.00  0.00    -0.016 A 
ATOM      8  C8  IND d   1       1.332   1.910   1.832  0.00  0.00    -0.047 A 
ATOM      9  C9  IND d   1       0.501   1.566   0.759  0.00  0.00    -0.096 A 
ATOM     10  HN1 IND d   1       0.784   2.573   3.644  0.00  0.00     0.298 HD
ENDROOT
TORSDOF 0
ENDMDL
