MODEL 1
REMARK minimizedAffinity 3.83564687
REMARK minimizedRMSD -1
REMARK  0 active torsions:
REMARK  status: ('A' for Active; 'I' for Inactive)
ROOT
ATOM      1  N1  IND d   1       3.127   1.563   1.768  0.00  0.00    -0.196 N 
ATOM      2  C2  IND d   1       3.205   0.838   0.611  0.00  0.00     0.054 A 
ATOM      3  C3  IND d   1       1.972   0.649   0.091  0.00  0.00    -0.031 A 
ATOM      4  C4  IND d   1      -0.304   1.525   0.917  0.00  0.00     0.051 A 
ATOM      5  C5  IND d   1      -0.887   2.202   1.951  0.00  0.00    -0.031 A 
ATOM      6  C6  IND d   1      -0.146   2.713   2.997  0.00  0.00     0.015 A 
ATOM      7  C7  IND d   1       1.213   2.575   3.042  0.00  0.00    -0.016 A 
ATOM      8  C8  IND d   1       1.807   1.882   1.997  0.00  0.00    -0.047 A 
ATOM      9  C9  IND d   1       1.056   1.325   0.954  0.00  0.00    -0.096 A 
ATOM     10  HN1 IND d   1       3.791   1.782   2.268  0.00  0.00     0.298 HD
ENDROOT
TORSDOF 0
ENDMDL
