MODEL 1
REMARK minimizedAffinity 5.4397974
REMARK minimizedRMSD -1
REMARK  0 active torsions:
REMARK  status: ('A' for Active; 'I' for Inactive)
ROOT
ATOM      1  N1  IND d   1      -1.678   4.707  -5.993  0.00  0.00    -0.196 N 
ATOM      2  C2  IND d   1      -3.021   4.963  -5.998  0.00  0.00     0.054 A 
ATOM      3  C3  IND d   1      -3.706   3.886  -5.551  0.00  0.00    -0.031 A 
ATOM      4  C4  IND d   1      -2.821   1.638  -4.662  0.00  0.00     0.051 A 
ATOM      5  C5  IND d   1      -1.668   0.924  -4.497  0.00  0.00    -0.031 A 
ATOM      6  C6  IND d   1      -0.434   1.446  -4.826  0.00  0.00     0.015 A 
ATOM      7  C7  IND d   1      -0.305   2.711  -5.325  0.00  0.00    -0.016 A 
ATOM      8  C8  IND d   1      -1.475   3.437  -5.500  0.00  0.00    -0.047 A 
ATOM      9  C9  IND d   1      -2.734   2.897  -5.208  0.00  0.00    -0.096 A 
ATOM     10  HN1 IND d   1      -1.063   5.249  -6.254  0.00  0.00     0.298 HD
ENDROOT
TORSDOF 0
ENDMDL
