MODEL 1
REMARK minimizedAffinity 3.77518106
REMARK minimizedRMSD -1
REMARK  0 active torsions:
REMARK  status: ('A' for Active; 'I' for Inactive)
ROOT
ATOM      1  N1  IND d   1      -0.486   2.690   2.011  0.00  0.00    -0.196 N 
ATOM      2  C2  IND d   1       0.053   3.383   3.059  0.00  0.00     0.054 A 
ATOM      3  C3  IND d   1       1.388   3.179   3.120  0.00  0.00    -0.031 A 
ATOM      4  C4  IND d   1       2.910   1.829   1.543  0.00  0.00     0.051 A 
ATOM      5  C5  IND d   1       2.871   0.991   0.464  0.00  0.00    -0.031 A 
ATOM      6  C6  IND d   1       1.687   0.672  -0.169  0.00  0.00     0.015 A 
ATOM      7  C7  IND d   1       0.494   1.191   0.248  0.00  0.00    -0.016 A 
ATOM      8  C8  IND d   1       0.529   2.037   1.348  0.00  0.00    -0.047 A 
ATOM      9  C9  IND d   1       1.723   2.330   2.021  0.00  0.00    -0.096 A 
ATOM     10  HN1 IND d   1      -1.320   2.667   1.801  0.00  0.00     0.298 HD
ENDROOT
TORSDOF 0
ENDMDL
