MODEL 1
REMARK minimizedAffinity 11.1811647
REMARK minimizedRMSD -1
REMARK  0 active torsions:
REMARK  status: ('A' for Active; 'I' for Inactive)
ROOT
ATOM      1  N1  IND d   1       2.618   0.779  -1.832  0.00  0.00    -0.196 N 
ATOM      2  C2  IND d   1       1.871   1.105  -2.930  0.00  0.00     0.054 A 
ATOM      3  C3  IND d   1       0.637   1.509  -2.557  0.00  0.00    -0.031 A 
ATOM      4  C4  IND d   1      -0.341   1.812  -0.194  0.00  0.00     0.051 A 
ATOM      5  C5  IND d   1      -0.051   1.608   1.126  0.00  0.00    -0.031 A 
ATOM      6  C6  IND d   1       1.169   1.110   1.536  0.00  0.00     0.015 A 
ATOM      7  C7  IND d   1       2.153   0.806   0.638  0.00  0.00    -0.016 A 
ATOM      8  C8  IND d   1       1.860   1.006  -0.704  0.00  0.00    -0.047 A 
ATOM      9  C9  IND d   1       0.608   1.471  -1.129  0.00  0.00    -0.096 A 
ATOM     10  HN1 IND d   1       3.425   0.483  -1.843  0.00  0.00     0.298 HD
ENDROOT
TORSDOF 0
ENDMDL
