MODEL 1
REMARK minimizedAffinity 5.01338148
REMARK minimizedRMSD -1
REMARK  0 active torsions:
REMARK  status: ('A' for Active; 'I' for Inactive)
ROOT
ATOM      1  N1  IND d   1       3.548   1.683   1.628  0.00  0.00    -0.196 N 
ATOM      2  C2  IND d   1       3.686   0.654   0.740  0.00  0.00     0.054 A 
ATOM      3  C3  IND d   1       2.483   0.311   0.226  0.00  0.00    -0.031 A 
ATOM      4  C4  IND d   1       0.172   1.373   0.626  0.00  0.00     0.051 A 
ATOM      5  C5  IND d   1      -0.463   2.318   1.382  0.00  0.00    -0.031 A 
ATOM      6  C6  IND d   1       0.220   3.118   2.274  0.00  0.00     0.015 A 
ATOM      7  C7  IND d   1       1.573   3.010   2.437  0.00  0.00    -0.016 A 
ATOM      8  C8  IND d   1       2.220   2.046   1.676  0.00  0.00    -0.047 A 
ATOM      9  C9  IND d   1       1.525   1.203   0.800  0.00  0.00    -0.096 A 
ATOM     10  HN1 IND d   1       4.184   2.044   2.081  0.00  0.00     0.298 HD
ENDROOT
TORSDOF 0
ENDMDL
