MODEL 1
REMARK minimizedAffinity 0.613367319
REMARK minimizedRMSD -1
REMARK  0 active torsions:
REMARK  status: ('A' for Active; 'I' for Inactive)
ROOT
ATOM      1  N1  IND d   1      -1.473   2.701   2.253  0.00  0.00    -0.196 N 
ATOM      2  C2  IND d   1      -0.870   3.267   3.342  0.00  0.00     0.054 A 
ATOM      3  C3  IND d   1       0.460   3.022   3.323  0.00  0.00    -0.031 A 
ATOM      4  C4  IND d   1       1.873   1.803   1.551  0.00  0.00     0.051 A 
ATOM      5  C5  IND d   1       1.764   1.083   0.394  0.00  0.00    -0.031 A 
ATOM      6  C6  IND d   1       0.546   0.863  -0.215  0.00  0.00     0.015 A 
ATOM      7  C7  IND d   1      -0.613   1.367   0.305  0.00  0.00    -0.016 A 
ATOM      8  C8  IND d   1      -0.506   2.093   1.483  0.00  0.00    -0.047 A 
ATOM      9  C9  IND d   1       0.722   2.283   2.129  0.00  0.00    -0.096 A 
ATOM     10  HN1 IND d   1      -2.315   2.722   2.079  0.00  0.00     0.298 HD
ENDROOT
TORSDOF 0
ENDMDL
