MODEL 1
REMARK minimizedAffinity -4.80376434
REMARK minimizedRMSD -1
REMARK  0 active torsions:
REMARK  status: ('A' for Active; 'I' for Inactive)
ROOT
ATOM      1  N1  IND d   1      -1.363   0.336   0.757  0.00  0.00    -0.196 N 
ATOM      2  C2  IND d   1      -1.022   0.713  -0.512  0.00  0.00     0.054 A 
ATOM      3  C3  IND d   1       0.296   0.500  -0.728  0.00  0.00    -0.031 A 
ATOM      4  C4  IND d   1       2.059  -0.552   0.825  0.00  0.00     0.051 A 
ATOM      5  C5  IND d   1       2.231  -1.019   2.098  0.00  0.00    -0.031 A 
ATOM      6  C6  IND d   1       1.193  -1.062   3.006  0.00  0.00     0.015 A 
ATOM      7  C7  IND d   1      -0.065  -0.648   2.670  0.00  0.00    -0.016 A 
ATOM      8  C8  IND d   1      -0.242  -0.166   1.381  0.00  0.00    -0.047 A 
ATOM      9  C9  IND d   1       0.817  -0.080   0.468  0.00  0.00    -0.096 A 
ATOM     10  HN1 IND d   1      -2.146   0.402   1.106  0.00  0.00     0.298 HD
ENDROOT
TORSDOF 0
ENDMDL
