MODEL 1
REMARK minimizedAffinity -2.08014297
REMARK minimizedRMSD -1
REMARK  0 active torsions:
REMARK  status: ('A' for Active; 'I' for Inactive)
ROOT
ATOM      1  N1  IND d   1      -1.259   0.388  -0.052  0.00  0.00    -0.196 N 
ATOM      2  C2  IND d   1      -0.833   0.654  -1.324  0.00  0.00     0.054 A 
ATOM      3  C3  IND d   1       0.496   0.431  -1.430  0.00  0.00    -0.031 A 
ATOM      4  C4  IND d   1       2.149  -0.472   0.325  0.00  0.00     0.051 A 
ATOM      5  C5  IND d   1       2.235  -0.825   1.642  0.00  0.00    -0.031 A 
ATOM      6  C6  IND d   1       1.138  -0.794   2.478  0.00  0.00     0.015 A 
ATOM      7  C7  IND d   1      -0.094  -0.418   2.023  0.00  0.00    -0.016 A 
ATOM      8  C8  IND d   1      -0.184  -0.052   0.688  0.00  0.00    -0.047 A 
ATOM      9  C9  IND d   1       0.935  -0.041  -0.155  0.00  0.00    -0.096 A 
ATOM     10  HN1 IND d   1      -2.064   0.479   0.236  0.00  0.00     0.298 HD
ENDROOT
TORSDOF 0
ENDMDL
