MODEL 1
REMARK minimizedAffinity -3.1488018
REMARK minimizedRMSD -1
REMARK  0 active torsions:
REMARK  status: ('A' for Active; 'I' for Inactive)
ROOT
ATOM      1  N1  IND d   1       1.382   1.225  -0.080  0.00  0.00    -0.196 N 
ATOM      2  C2  IND d   1       0.224   1.360  -0.794  0.00  0.00     0.054 A 
ATOM      3  C3  IND d   1      -0.777   0.671  -0.200  0.00  0.00    -0.031 A 
ATOM      4  C4  IND d   1      -0.763  -0.663   2.001  0.00  0.00     0.051 A 
ATOM      5  C5  IND d   1       0.073  -1.103   2.989  0.00  0.00    -0.031 A 
ATOM      6  C6  IND d   1       1.415  -0.780   3.006  0.00  0.00     0.015 A 
ATOM      7  C7  IND d   1       1.970   0.007   2.037  0.00  0.00    -0.016 A 
ATOM      8  C8  IND d   1       1.126   0.449   1.029  0.00  0.00    -0.047 A 
ATOM      9  C9  IND d   1      -0.227   0.090   0.983  0.00  0.00    -0.096 A 
ATOM     10  HN1 IND d   1       2.143   1.567  -0.290  0.00  0.00     0.298 HD
ENDROOT
TORSDOF 0
ENDMDL
