MODEL 1
REMARK minimizedAffinity -2.86236787
REMARK minimizedRMSD -1
REMARK  0 active torsions:
REMARK  status: ('A' for Active; 'I' for Inactive)
ROOT
ATOM      1  N1  IND d   1      -0.016  -0.422   2.198  0.00  0.00    -0.196 N 
ATOM      2  C2  IND d   1       1.125  -0.999   2.683  0.00  0.00     0.054 A 
ATOM      3  C3  IND d   1       1.958  -1.320   1.668  0.00  0.00    -0.031 A 
ATOM      4  C4  IND d   1       1.697  -0.896  -0.858  0.00  0.00     0.051 A 
ATOM      5  C5  IND d   1       0.809  -0.430  -1.786  0.00  0.00    -0.031 A 
ATOM      6  C6  IND d   1      -0.424   0.075  -1.426  0.00  0.00     0.015 A 
ATOM      7  C7  IND d   1      -0.811   0.144  -0.117  0.00  0.00    -0.016 A 
ATOM      8  C8  IND d   1       0.086  -0.335   0.827  0.00  0.00    -0.047 A 
ATOM      9  C9  IND d   1       1.321  -0.888   0.464  0.00  0.00    -0.096 A 
ATOM     10  HN1 IND d   1      -0.684  -0.158   2.670  0.00  0.00     0.298 HD
ENDROOT
TORSDOF 0
ENDMDL
