MODEL 1
REMARK minimizedAffinity 7.00054073
REMARK minimizedRMSD -1
REMARK  1 active torsions:
REMARK  status: ('A' for Active; 'I' for Inactive)
REMARK    1  A    between atoms: C1_2  and  C2_3 
ROOT
ATOM      1  C2  UNL d   1       0.380   1.643  -0.138  0.00  0.00    -0.076 A 
ATOM      2  C3  UNL d   1       1.439   0.773   0.175  0.00  0.00     0.004 A 
ATOM      3  C4  UNL d   1       2.142   0.900   1.372  0.00  0.00    -0.003 A 
ATOM      4  C5  UNL d   1       1.797   1.899   2.276  0.00  0.00     0.000 A 
ATOM      5  C6  UNL d   1       0.737   2.760   1.989  0.00  0.00     0.000 A 
ATOM      6  C7  UNL d   1       0.008   2.635   0.794  0.00  0.00    -0.073 A 
ATOM      7  C8  UNL d   1      -1.121   3.594   0.534  0.00  0.00     0.078 C 
ENDROOT
BRANCH   1   8
ATOM      8  C1  UNL d   1      -0.328   1.474  -1.464  0.00  0.00     0.053 C 
ATOM      9  C   UNL d   1      -1.121   0.179  -1.540  0.00  0.00     0.018 C 
ENDBRANCH   1   8
TORSDOF 1
ENDMDL
