MODEL 1
REMARK minimizedAffinity 2.52241731
REMARK minimizedRMSD -1
REMARK  1 active torsions:
REMARK  status: ('A' for Active; 'I' for Inactive)
REMARK    1  A    between atoms: C1_2  and  C2_3 
ROOT
ATOM      1  C2  UNL d   1      -0.692   1.519   0.459  0.00  0.00    -0.076 A 
ATOM      2  C3  UNL d   1       0.345   1.758   1.379  0.00  0.00     0.004 A 
ATOM      3  C4  UNL d   1       1.475   0.943   1.414  0.00  0.00    -0.003 A 
ATOM      4  C5  UNL d   1       1.587  -0.124   0.530  0.00  0.00     0.000 A 
ATOM      5  C6  UNL d   1       0.577  -0.366  -0.400  0.00  0.00     0.000 A 
ATOM      6  C7  UNL d   1      -0.561   0.456  -0.460  0.00  0.00    -0.073 A 
ATOM      7  C8  UNL d   1      -1.623   0.146  -1.480  0.00  0.00     0.078 C 
ENDROOT
BRANCH   1   8
ATOM      8  C1  UNL d   1      -1.905   2.420   0.486  0.00  0.00     0.053 C 
ATOM      9  C   UNL d   1      -2.989   1.911   1.424  0.00  0.00     0.018 C 
ENDBRANCH   1   8
TORSDOF 1
ENDMDL
