MODEL 1
REMARK minimizedAffinity 3.28643537
REMARK minimizedRMSD -1
REMARK  1 active torsions:
REMARK  status: ('A' for Active; 'I' for Inactive)
REMARK    1  A    between atoms: C1_2  and  C2_3 
ROOT
ATOM      1  C2  UNL d   1      -2.337   2.262   0.587  0.00  0.00    -0.076 A 
ATOM      2  C3  UNL d   1      -2.725   1.112  -0.123  0.00  0.00     0.004 A 
ATOM      3  C4  UNL d   1      -3.968   0.521   0.094  0.00  0.00    -0.003 A 
ATOM      4  C5  UNL d   1      -4.844   1.070   1.023  0.00  0.00     0.000 A 
ATOM      5  C6  UNL d   1      -4.483   2.221   1.723  0.00  0.00     0.000 A 
ATOM      6  C7  UNL d   1      -3.240   2.839   1.505  0.00  0.00    -0.073 A 
ATOM      7  C8  UNL d   1      -2.899   4.075   2.292  0.00  0.00     0.078 C 
ENDROOT
BRANCH   1   8
ATOM      8  C1  UNL d   1      -0.965   2.844   0.329  0.00  0.00     0.053 C 
ATOM      9  C   UNL d   1      -0.202   2.083  -0.745  0.00  0.00     0.018 C 
ENDBRANCH   1   8
TORSDOF 1
ENDMDL
