MODEL 1
REMARK minimizedAffinity 1.08730805
REMARK minimizedRMSD -1
REMARK  1 active torsions:
REMARK  status: ('A' for Active; 'I' for Inactive)
REMARK    1  A    between atoms: C1_2  and  C2_3 
ROOT
ATOM      1  C2  UNL d   1      -2.374   1.326   0.071  0.00  0.00    -0.076 A 
ATOM      2  C3  UNL d   1      -2.502   2.077   1.253  0.00  0.00     0.004 A 
ATOM      3  C4  UNL d   1      -3.702   2.099   1.962  0.00  0.00    -0.003 A 
ATOM      4  C5  UNL d   1      -4.793   1.370   1.502  0.00  0.00     0.000 A 
ATOM      5  C6  UNL d   1      -4.679   0.606   0.341  0.00  0.00     0.000 A 
ATOM      6  C7  UNL d   1      -3.471   0.560  -0.378  0.00  0.00    -0.073 A 
ATOM      7  C8  UNL d   1      -3.406  -0.276  -1.626  0.00  0.00     0.078 C 
ENDROOT
BRANCH   1   8
ATOM      8  C1  UNL d   1      -1.057   1.363  -0.671  0.00  0.00     0.053 C 
ATOM      9  C   UNL d   1      -0.159   2.499  -0.209  0.00  0.00     0.018 C 
ENDBRANCH   1   8
TORSDOF 1
ENDMDL
