MODEL 1
REMARK minimizedAffinity 9.00067234
REMARK minimizedRMSD -1
REMARK  1 active torsions:
REMARK  status: ('A' for Active; 'I' for Inactive)
REMARK    1  A    between atoms: C1_2  and  C2_3 
ROOT
ATOM      1  C2  UNL d   1       2.502  -0.673  -0.180  0.00  0.00    -0.076 A 
ATOM      2  C3  UNL d   1       1.605   0.217  -0.796  0.00  0.00     0.004 A 
ATOM      3  C4  UNL d   1       1.390   1.492  -0.277  0.00  0.00    -0.003 A 
ATOM      4  C5  UNL d   1       2.069   1.899   0.867  0.00  0.00     0.000 A 
ATOM      5  C6  UNL d   1       2.975   1.035   1.480  0.00  0.00     0.000 A 
ATOM      6  C7  UNL d   1       3.216  -0.248   0.960  0.00  0.00    -0.073 A 
ATOM      7  C8  UNL d   1       4.200  -1.140   1.666  0.00  0.00     0.078 C 
ENDROOT
BRANCH   1   8
ATOM      8  C1  UNL d   1       2.674  -2.054  -0.773  0.00  0.00     0.053 C 
ATOM      9  C   UNL d   1       1.701  -3.065  -0.187  0.00  0.00     0.018 C 
ENDBRANCH   1   8
TORSDOF 1
ENDMDL
