MODEL 1
REMARK minimizedAffinity 6.68632126
REMARK minimizedRMSD -1
REMARK  1 active torsions:
REMARK  status: ('A' for Active; 'I' for Inactive)
REMARK    1  A    between atoms: C1_2  and  C2_3 
ROOT
ATOM      1  C2  UNL d   1       1.990  -0.215  -0.077  0.00  0.00    -0.076 A 
ATOM      2  C3  UNL d   1       0.794  -0.305  -0.812  0.00  0.00     0.004 A 
ATOM      3  C4  UNL d   1       0.274  -1.542  -1.187  0.00  0.00    -0.003 A 
ATOM      4  C5  UNL d   1       0.940  -2.710  -0.833  0.00  0.00     0.000 A 
ATOM      5  C6  UNL d   1       2.118  -2.641  -0.090  0.00  0.00     0.000 A 
ATOM      6  C7  UNL d   1       2.647  -1.402   0.311  0.00  0.00    -0.073 A 
ATOM      7  C8  UNL d   1       3.924  -1.386   1.106  0.00  0.00     0.078 C 
ENDROOT
BRANCH   1   8
ATOM      8  C1  UNL d   1       2.521   1.155   0.278  0.00  0.00     0.053 C 
ATOM      9  C   UNL d   1       1.438   2.223   0.256  0.00  0.00     0.018 C 
ENDBRANCH   1   8
TORSDOF 1
ENDMDL
