MODEL 1
REMARK minimizedAffinity 2.22806191
REMARK minimizedRMSD -1
REMARK  1 active torsions:
REMARK  status: ('A' for Active; 'I' for Inactive)
REMARK    1  A    between atoms: C1_2  and  C2_3 
ROOT
ATOM      1  C2  UNL d   1      -3.528   0.503  -0.893  0.00  0.00    -0.076 A 
ATOM      2  C3  UNL d   1      -2.265   0.894  -0.417  0.00  0.00     0.004 A 
ATOM      3  C4  UNL d   1      -2.087   1.284   0.910  0.00  0.00    -0.003 A 
ATOM      4  C5  UNL d   1      -3.171   1.288   1.782  0.00  0.00     0.000 A 
ATOM      5  C6  UNL d   1      -4.427   0.886   1.331  0.00  0.00     0.000 A 
ATOM      6  C7  UNL d   1      -4.620   0.475   0.001  0.00  0.00    -0.073 A 
ATOM      7  C8  UNL d   1      -5.998   0.057  -0.434  0.00  0.00     0.078 C 
ENDROOT
BRANCH   1   8
ATOM      8  C1  UNL d   1      -3.665   0.116  -2.348  0.00  0.00     0.053 C 
ATOM      9  C   UNL d   1      -3.982   1.306  -3.240  0.00  0.00     0.018 C 
ENDBRANCH   1   8
TORSDOF 1
ENDMDL
