MODEL 1
REMARK minimizedAffinity 1.92151403
REMARK minimizedRMSD -1
REMARK  1 active torsions:
REMARK  status: ('A' for Active; 'I' for Inactive)
REMARK    1  A    between atoms: C1_2  and  C2_3 
ROOT
ATOM      1  C2  UNL d   1      -4.530   0.885  -3.139  0.00  0.00    -0.076 A 
ATOM      2  C3  UNL d   1      -5.628   1.487  -3.776  0.00  0.00     0.004 A 
ATOM      3  C4  UNL d   1      -5.445   2.464  -4.753  0.00  0.00    -0.003 A 
ATOM      4  C5  UNL d   1      -4.158   2.855  -5.109  0.00  0.00     0.000 A 
ATOM      5  C6  UNL d   1      -3.056   2.255  -4.500  0.00  0.00     0.000 A 
ATOM      6  C7  UNL d   1      -3.224   1.257  -3.525  0.00  0.00    -0.073 A 
ATOM      7  C8  UNL d   1      -2.000   0.649  -2.896  0.00  0.00     0.078 C 
ENDROOT
BRANCH   1   8
ATOM      8  C1  UNL d   1      -4.791  -0.150  -2.068  0.00  0.00     0.053 C 
ATOM      9  C   UNL d   1      -5.268   0.470  -0.763  0.00  0.00     0.018 C 
ENDBRANCH   1   8
TORSDOF 1
ENDMDL
