MODEL 1
REMARK minimizedAffinity 1.88040721
REMARK minimizedRMSD -1
REMARK  1 active torsions:
REMARK  status: ('A' for Active; 'I' for Inactive)
REMARK    1  A    between atoms: C1_2  and  C2_3 
ROOT
ATOM      1  C2  UNL d   1      -5.461   0.549  -1.926  0.00  0.00    -0.076 A 
ATOM      2  C3  UNL d   1      -6.000   1.807  -2.249  0.00  0.00     0.004 A 
ATOM      3  C4  UNL d   1      -5.783   2.381  -3.500  0.00  0.00    -0.003 A 
ATOM      4  C5  UNL d   1      -5.024   1.706  -4.450  0.00  0.00     0.000 A 
ATOM      5  C6  UNL d   1      -4.496   0.450  -4.153  0.00  0.00     0.000 A 
ATOM      6  C7  UNL d   1      -4.719  -0.150  -2.902  0.00  0.00    -0.073 A 
ATOM      7  C8  UNL d   1      -4.122  -1.504  -2.634  0.00  0.00     0.078 C 
ENDROOT
BRANCH   1   8
ATOM      8  C1  UNL d   1      -5.707  -0.011  -0.544  0.00  0.00     0.053 C 
ATOM      9  C   UNL d   1      -5.245   0.931   0.558  0.00  0.00     0.018 C 
ENDBRANCH   1   8
TORSDOF 1
ENDMDL
