MODEL 1
REMARK minimizedAffinity 4.81989717
REMARK minimizedRMSD -1
REMARK  1 active torsions:
REMARK  status: ('A' for Active; 'I' for Inactive)
REMARK    1  A    between atoms: C1_2  and  C2_3 
ROOT
ATOM      1  C2  UNL d   1       2.176  -1.362  -0.104  0.00  0.00    -0.076 A 
ATOM      2  C3  UNL d   1       1.354  -1.263  -1.239  0.00  0.00     0.004 A 
ATOM      3  C4  UNL d   1       0.396  -2.236  -1.519  0.00  0.00    -0.003 A 
ATOM      4  C5  UNL d   1       0.245  -3.324  -0.667  0.00  0.00     0.000 A 
ATOM      5  C6  UNL d   1       1.040  -3.430   0.473  0.00  0.00     0.000 A 
ATOM      6  C7  UNL d   1       1.999  -2.449   0.779  0.00  0.00    -0.073 A 
ATOM      7  C8  UNL d   1       2.834  -2.617   2.019  0.00  0.00     0.078 C 
ENDROOT
BRANCH   1   8
ATOM      8  C1  UNL d   1       3.216  -0.290   0.134  0.00  0.00     0.053 C 
ATOM      9  C   UNL d   1       2.654   1.113  -0.032  0.00  0.00     0.018 C 
ENDBRANCH   1   8
TORSDOF 1
ENDMDL
