MODEL 1
REMARK minimizedAffinity -4.84521198
REMARK minimizedRMSD -1
REMARK  2 active torsions:
REMARK  status: ('A' for Active; 'I' for Inactive)
REMARK    1  A    between atoms: C1_2  and  C2_3 
REMARK    2  A    between atoms: C2_3  and  C3_4 
ROOT
ATOM      1  C3  UNL d   1      -2.436  -0.358   1.208  0.00  0.00    -0.075 A 
ATOM      2  C4  UNL d   1      -1.038  -0.282   1.129  0.00  0.00     0.002 A 
ATOM      3  C5  UNL d   1      -0.310   0.404   2.102  0.00  0.00     0.002 A 
ATOM      4  C6  UNL d   1      -0.970   1.030   3.158  0.00  0.00    -0.004 A 
ATOM      5  C7  UNL d   1      -2.360   0.975   3.237  0.00  0.00     0.002 A 
ATOM      6  C8  UNL d   1      -3.090   0.286   2.267  0.00  0.00     0.002 A 
ENDROOT
BRANCH   1   7
ATOM      7  C2  UNL d   1      -3.228  -1.123   0.174  0.00  0.00     0.056 C 
BRANCH   7   8
ATOM      8  C1  UNL d   1      -3.566  -2.560   0.586  0.00  0.00     0.007 C 
ATOM      9  C   UNL d   1      -2.358  -3.488   0.572  0.00  0.00     0.009 C 
ENDBRANCH   7   8
ENDBRANCH   1   7
TORSDOF 2
ENDMDL
