MODEL 1
REMARK minimizedAffinity 10.0185852
REMARK minimizedRMSD -1
REMARK  2 active torsions:
REMARK  status: ('A' for Active; 'I' for Inactive)
REMARK    1  A    between atoms: C1_2  and  C2_3 
REMARK    2  A    between atoms: C2_3  and  C3_4 
ROOT
ATOM      1  C3  UNL d   1      -1.548   0.011   2.774  0.00  0.00    -0.075 A 
ATOM      2  C4  UNL d   1      -2.654   0.034   3.637  0.00  0.00     0.002 A 
ATOM      3  C5  UNL d   1      -3.933   0.291   3.142  0.00  0.00     0.002 A 
ATOM      4  C6  UNL d   1      -4.121   0.538   1.784  0.00  0.00    -0.004 A 
ATOM      5  C7  UNL d   1      -3.028   0.534   0.921  0.00  0.00     0.002 A 
ATOM      6  C8  UNL d   1      -1.747   0.273   1.412  0.00  0.00     0.002 A 
ENDROOT
BRANCH   1   7
ATOM      7  C2  UNL d   1      -0.166  -0.296   3.299  0.00  0.00     0.056 C 
BRANCH   7   8
ATOM      8  C1  UNL d   1       0.876   0.781   2.977  0.00  0.00     0.007 C 
ATOM      9  C   UNL d   1       2.307   0.259   3.003  0.00  0.00     0.009 C 
ENDBRANCH   7   8
ENDBRANCH   1   7
TORSDOF 2
ENDMDL
