MODEL 1
REMARK minimizedAffinity 4.82858086
REMARK minimizedRMSD -1
REMARK  2 active torsions:
REMARK  status: ('A' for Active; 'I' for Inactive)
REMARK    1  A    between atoms: C1_2  and  C2_3 
REMARK    2  A    between atoms: C2_3  and  C3_4 
ROOT
ATOM      1  C3  UNL d   1       0.956  -4.672   1.843  0.00  0.00    -0.075 A 
ATOM      2  C4  UNL d   1       2.209  -4.697   1.212  0.00  0.00     0.002 A 
ATOM      3  C5  UNL d   1       3.285  -5.362   1.801  0.00  0.00     0.002 A 
ATOM      4  C6  UNL d   1       3.126  -6.000   3.029  0.00  0.00    -0.004 A 
ATOM      5  C7  UNL d   1       1.891  -5.968   3.672  0.00  0.00     0.002 A 
ATOM      6  C8  UNL d   1       0.811  -5.307   3.083  0.00  0.00     0.002 A 
ENDROOT
BRANCH   1   7
ATOM      7  C2  UNL d   1      -0.220  -3.980   1.197  0.00  0.00     0.056 C 
BRANCH   7   8
ATOM      8  C1  UNL d   1      -1.520  -4.790   1.238  0.00  0.00     0.007 C 
ATOM      9  C   UNL d   1      -2.676  -4.108   0.517  0.00  0.00     0.009 C 
ENDBRANCH   7   8
ENDBRANCH   1   7
TORSDOF 2
ENDMDL
