MODEL 1
REMARK minimizedAffinity 0.701967657
REMARK minimizedRMSD -1
REMARK  2 active torsions:
REMARK  status: ('A' for Active; 'I' for Inactive)
REMARK    1  A    between atoms: C1_2  and  C2_3 
REMARK    2  A    between atoms: C2_3  and  C3_4 
ROOT
ATOM      1  C3  UNL d   1      -3.418  -2.423  -5.999  0.00  0.00    -0.075 A 
ATOM      2  C4  UNL d   1      -4.712  -1.881  -5.998  0.00  0.00     0.002 A 
ATOM      3  C5  UNL d   1      -5.829  -2.716  -5.975  0.00  0.00     0.002 A 
ATOM      4  C6  UNL d   1      -5.669  -4.100  -5.964  0.00  0.00    -0.004 A 
ATOM      5  C7  UNL d   1      -4.389  -4.649  -5.982  0.00  0.00     0.002 A 
ATOM      6  C8  UNL d   1      -3.269  -3.816  -6.000  0.00  0.00     0.002 A 
ENDROOT
BRANCH   1   7
ATOM      7  C2  UNL d   1      -2.204  -1.525  -5.994  0.00  0.00     0.056 C 
BRANCH   7   8
ATOM      8  C1  UNL d   1      -0.873  -2.277  -5.898  0.00  0.00     0.007 C 
ATOM      9  C   UNL d   1       0.145  -1.584  -5.001  0.00  0.00     0.009 C 
ENDBRANCH   7   8
ENDBRANCH   1   7
TORSDOF 2
ENDMDL
