MODEL 1
REMARK minimizedAffinity 1.24679708
REMARK minimizedRMSD -1
REMARK  2 active torsions:
REMARK  status: ('A' for Active; 'I' for Inactive)
REMARK    1  A    between atoms: C1_2  and  C2_3 
REMARK    2  A    between atoms: C2_3  and  C3_4 
ROOT
ATOM      1  C3  UNL d   1      -3.605  -2.351  -5.983  0.00  0.00    -0.075 A 
ATOM      2  C4  UNL d   1      -2.328  -2.931  -6.000  0.00  0.00     0.002 A 
ATOM      3  C5  UNL d   1      -1.186  -2.131  -5.958  0.00  0.00     0.002 A 
ATOM      4  C6  UNL d   1      -1.305  -0.743  -5.910  0.00  0.00    -0.004 A 
ATOM      5  C7  UNL d   1      -2.568  -0.156  -5.910  0.00  0.00     0.002 A 
ATOM      6  C8  UNL d   1      -3.712  -0.954  -5.946  0.00  0.00     0.002 A 
ENDROOT
BRANCH   1   7
ATOM      7  C2  UNL d   1      -4.845  -3.212  -5.998  0.00  0.00     0.056 C 
BRANCH   7   8
ATOM      8  C1  UNL d   1      -5.999  -2.657  -5.157  0.00  0.00     0.007 C 
ATOM      9  C   UNL d   1      -5.637  -2.468  -3.690  0.00  0.00     0.009 C 
ENDBRANCH   7   8
ENDBRANCH   1   7
TORSDOF 2
ENDMDL
