MODEL 1
REMARK minimizedAffinity 9.1722517
REMARK minimizedRMSD -1
REMARK  2 active torsions:
REMARK  status: ('A' for Active; 'I' for Inactive)
REMARK    1  A    between atoms: C1_2  and  C2_3 
REMARK    2  A    between atoms: C2_3  and  C3_4 
ROOT
ATOM      1  C3  UNL d   1      -4.483   0.552   3.415  0.00  0.00    -0.075 A 
ATOM      2  C4  UNL d   1      -5.343   1.638   3.632  0.00  0.00     0.002 A 
ATOM      3  C5  UNL d   1      -5.794   1.938   4.917  0.00  0.00     0.002 A 
ATOM      4  C6  UNL d   1      -5.401   1.152   5.998  0.00  0.00    -0.004 A 
ATOM      5  C7  UNL d   1      -4.560   0.061   5.792  0.00  0.00     0.002 A 
ATOM      6  C8  UNL d   1      -4.103  -0.239   4.507  0.00  0.00     0.002 A 
ENDROOT
BRANCH   1   7
ATOM      7  C2  UNL d   1      -3.967   0.240   2.030  0.00  0.00     0.056 C 
BRANCH   7   8
ATOM      8  C1  UNL d   1      -2.934   1.244   1.508  0.00  0.00     0.007 C 
ATOM      9  C   UNL d   1      -1.511   0.922   1.945  0.00  0.00     0.009 C 
ENDBRANCH   7   8
ENDBRANCH   1   7
TORSDOF 2
ENDMDL
