MODEL 1
REMARK minimizedAffinity -1.72376812
REMARK minimizedRMSD -1
REMARK  2 active torsions:
REMARK  status: ('A' for Active; 'I' for Inactive)
REMARK    1  A    between atoms: C1_2  and  C2_3 
REMARK    2  A    between atoms: C2_3  and  C3_4 
ROOT
ATOM      1  C3  UNL d   1      -5.285   2.115   3.852  0.00  0.00    -0.075 A 
ATOM      2  C4  UNL d   1      -5.073   0.746   4.071  0.00  0.00     0.002 A 
ATOM      3  C5  UNL d   1      -4.388  -0.024   3.130  0.00  0.00     0.002 A 
ATOM      4  C6  UNL d   1      -3.916   0.562   1.957  0.00  0.00    -0.004 A 
ATOM      5  C7  UNL d   1      -4.135   1.917   1.723  0.00  0.00     0.002 A 
ATOM      6  C8  UNL d   1      -4.817   2.691   2.664  0.00  0.00     0.002 A 
ENDROOT
BRANCH   1   7
ATOM      7  C2  UNL d   1      -6.000   2.959   4.880  0.00  0.00     0.056 C 
BRANCH   7   8
ATOM      8  C1  UNL d   1      -5.813   4.468   4.686  0.00  0.00     0.007 C 
ATOM      9  C   UNL d   1      -5.718   5.234   5.999  0.00  0.00     0.009 C 
ENDBRANCH   7   8
ENDBRANCH   1   7
TORSDOF 2
ENDMDL
