MODEL 1
REMARK minimizedAffinity -2.09524751
REMARK minimizedRMSD -1
REMARK  2 active torsions:
REMARK  status: ('A' for Active; 'I' for Inactive)
REMARK    1  A    between atoms: C1_2  and  C2_3 
REMARK    2  A    between atoms: C2_3  and  C3_4 
ROOT
ATOM      1  C3  UNL d   1      -3.599  -2.406  -5.784  0.00  0.00    -0.075 A 
ATOM      2  C4  UNL d   1      -2.255  -2.780  -5.637  0.00  0.00     0.002 A 
ATOM      3  C5  UNL d   1      -1.246  -1.817  -5.658  0.00  0.00     0.002 A 
ATOM      4  C6  UNL d   1      -1.565  -0.472  -5.836  0.00  0.00    -0.004 A 
ATOM      5  C7  UNL d   1      -2.895  -0.092  -6.000  0.00  0.00     0.002 A 
ATOM      6  C8  UNL d   1      -3.907  -1.053  -5.975  0.00  0.00     0.002 A 
ENDROOT
BRANCH   1   7
ATOM      7  C2  UNL d   1      -4.698  -3.440  -5.733  0.00  0.00     0.056 C 
BRANCH   7   8
ATOM      8  C1  UNL d   1      -6.000  -2.936  -5.102  0.00  0.00     0.007 C 
ATOM      9  C   UNL d   1      -5.975  -2.952  -3.579  0.00  0.00     0.009 C 
ENDBRANCH   7   8
ENDBRANCH   1   7
TORSDOF 2
ENDMDL
