MODEL 1
REMARK minimizedAffinity 11.3807745
REMARK minimizedRMSD -1
REMARK  2 active torsions:
REMARK  status: ('A' for Active; 'I' for Inactive)
REMARK    1  A    between atoms: C1_2  and  C2_3 
REMARK    2  A    between atoms: C2_3  and  C3_4 
ROOT
ATOM      1  C3  UNL d   1       0.761   0.816   0.487  0.00  0.00    -0.075 A 
ATOM      2  C4  UNL d   1      -0.298  -0.102   0.429  0.00  0.00     0.002 A 
ATOM      3  C5  UNL d   1      -0.871  -0.597   1.601  0.00  0.00     0.002 A 
ATOM      4  C6  UNL d   1      -0.389  -0.189   2.842  0.00  0.00    -0.004 A 
ATOM      5  C7  UNL d   1       0.673   0.710   2.912  0.00  0.00     0.002 A 
ATOM      6  C8  UNL d   1       1.246   1.210   1.742  0.00  0.00     0.002 A 
ENDROOT
BRANCH   1   7
ATOM      7  C2  UNL d   1       1.367   1.377  -0.776  0.00  0.00     0.056 C 
BRANCH   7   8
ATOM      8  C1  UNL d   1       2.520   0.541  -1.341  0.00  0.00     0.007 C 
ATOM      9  C   UNL d   1       2.188  -0.118  -2.673  0.00  0.00     0.009 C 
ENDBRANCH   7   8
ENDBRANCH   1   7
TORSDOF 2
ENDMDL
