MODEL 1
REMARK minimizedAffinity 7.29674673
REMARK minimizedRMSD -1
REMARK  0 active torsions:
REMARK  status: ('A' for Active; 'I' for Inactive)
ROOT
ATOM      1  N1  IND d   1      -3.317  -0.750  -3.467  0.00  0.00    -0.196 N 
ATOM      2  C2  IND d   1      -2.624  -1.816  -2.966  0.00  0.00     0.054 A 
ATOM      3  C3  IND d   1      -2.532  -1.727  -1.620  0.00  0.00    -0.031 A 
ATOM      4  C4  IND d   1      -3.532   0.030  -0.025  0.00  0.00     0.051 A 
ATOM      5  C5  IND d   1      -4.215   1.213  -0.018  0.00  0.00    -0.031 A 
ATOM      6  C6  IND d   1      -4.644   1.814  -1.184  0.00  0.00     0.015 A 
ATOM      7  C7  IND d   1      -4.416   1.245  -2.405  0.00  0.00    -0.016 A 
ATOM      8  C8  IND d   1      -3.717   0.046  -2.416  0.00  0.00    -0.047 A 
ATOM      9  C9  IND d   1      -3.241  -0.546  -1.239  0.00  0.00    -0.096 A 
ATOM     10  HN1 IND d   1      -3.477  -0.601  -4.299  0.00  0.00     0.298 HD
ENDROOT
TORSDOF 0
ENDMDL
