MODEL 1
REMARK minimizedAffinity 6.13855124
REMARK minimizedRMSD -1
REMARK  0 active torsions:
REMARK  status: ('A' for Active; 'I' for Inactive)
ROOT
ATOM      1  N1  IND d   1       1.106  -0.387  -1.723  0.00  0.00    -0.196 N 
ATOM      2  C2  IND d   1      -0.083  -0.759  -2.286  0.00  0.00     0.054 A 
ATOM      3  C3  IND d   1      -0.294  -2.082  -2.106  0.00  0.00    -0.031 A 
ATOM      4  C4  IND d   1       1.128  -3.808  -0.831  0.00  0.00     0.051 A 
ATOM      5  C5  IND d   1       2.321  -3.949  -0.178  0.00  0.00    -0.031 A 
ATOM      6  C6  IND d   1       3.185  -2.889  -0.000  0.00  0.00     0.015 A 
ATOM      7  C7  IND d   1       2.883  -1.639  -0.462  0.00  0.00    -0.016 A 
ATOM      8  C8  IND d   1       1.677  -1.493  -1.131  0.00  0.00    -0.047 A 
ATOM      9  C9  IND d   1       0.815  -2.575  -1.352  0.00  0.00    -0.096 A 
ATOM     10  HN1 IND d   1       1.442   0.405  -1.736  0.00  0.00     0.298 HD
ENDROOT
TORSDOF 0
ENDMDL
