MODEL 1
REMARK minimizedAffinity 4.76510906
REMARK minimizedRMSD -1
REMARK  0 active torsions:
REMARK  status: ('A' for Active; 'I' for Inactive)
ROOT
ATOM      1  N1  IND d   1      -2.423  -0.012  -1.232  0.00  0.00    -0.196 N 
ATOM      2  C2  IND d   1      -3.477  -0.442  -0.474  0.00  0.00     0.054 A 
ATOM      3  C3  IND d   1      -3.437   0.127   0.751  0.00  0.00    -0.031 A 
ATOM      4  C4  IND d   1      -1.793   1.870   1.693  0.00  0.00     0.051 A 
ATOM      5  C5  IND d   1      -0.642   2.541   1.387  0.00  0.00    -0.031 A 
ATOM      6  C6  IND d   1      -0.015   2.394   0.167  0.00  0.00     0.015 A 
ATOM      7  C7  IND d   1      -0.524   1.576  -0.802  0.00  0.00    -0.016 A 
ATOM      8  C8  IND d   1      -1.689   0.888  -0.492  0.00  0.00    -0.047 A 
ATOM      9  C9  IND d   1      -2.306   1.000   0.760  0.00  0.00    -0.096 A 
ATOM     10  HN1 IND d   1      -2.249  -0.261  -2.037  0.00  0.00     0.298 HD
ENDROOT
TORSDOF 0
ENDMDL
