MODEL 1
REMARK minimizedAffinity 13.1061382
REMARK minimizedRMSD -1
REMARK  0 active torsions:
REMARK  status: ('A' for Active; 'I' for Inactive)
ROOT
ATOM      1  N1  IND d   1      -3.346  -0.867  -1.972  0.00  0.00    -0.196 N 
ATOM      2  C2  IND d   1      -3.712   0.239  -1.258  0.00  0.00     0.054 A 
ATOM      3  C3  IND d   1      -2.619   0.942  -0.886  0.00  0.00    -0.031 A 
ATOM      4  C4  IND d   1      -0.138   0.516  -1.427  0.00  0.00     0.051 A 
ATOM      5  C5  IND d   1       0.694  -0.392  -2.020  0.00  0.00    -0.031 A 
ATOM      6  C6  IND d   1       0.213  -1.525  -2.642  0.00  0.00     0.015 A 
ATOM      7  C7  IND d   1      -1.126  -1.789  -2.705  0.00  0.00    -0.016 A 
ATOM      8  C8  IND d   1      -1.974  -0.874  -2.098  0.00  0.00    -0.047 A 
ATOM      9  C9  IND d   1      -1.489   0.257  -1.428  0.00  0.00    -0.096 A 
ATOM     10  HN1 IND d   1      -3.882  -1.460  -2.290  0.00  0.00     0.298 HD
ENDROOT
TORSDOF 0
ENDMDL
