MODEL 1
REMARK minimizedAffinity -1.26269257
REMARK minimizedRMSD -1
REMARK  0 active torsions:
REMARK  status: ('A' for Active; 'I' for Inactive)
ROOT
ATOM      1  N1  IND d   1      -3.727  -0.861  -1.021  0.00  0.00    -0.196 N 
ATOM      2  C2  IND d   1      -4.223   0.410  -0.948  0.00  0.00     0.054 A 
ATOM      3  C3  IND d   1      -3.215   1.311  -0.974  0.00  0.00    -0.031 A 
ATOM      4  C4  IND d   1      -0.683   0.926  -1.235  0.00  0.00     0.051 A 
ATOM      5  C5  IND d   1       0.254  -0.067  -1.300  0.00  0.00    -0.031 A 
ATOM      6  C6  IND d   1      -0.095  -1.402  -1.279  0.00  0.00     0.015 A 
ATOM      7  C7  IND d   1      -1.401  -1.796  -1.202  0.00  0.00    -0.016 A 
ATOM      8  C8  IND d   1      -2.355  -0.791  -1.127  0.00  0.00    -0.047 A 
ATOM      9  C9  IND d   1      -2.004   0.565  -1.106  0.00  0.00    -0.096 A 
ATOM     10  HN1 IND d   1      -4.193  -1.584  -1.003  0.00  0.00     0.298 HD
ENDROOT
TORSDOF 0
ENDMDL
