MODEL 1
REMARK minimizedAffinity 11.2790422
REMARK minimizedRMSD -1
REMARK  0 active torsions:
REMARK  status: ('A' for Active; 'I' for Inactive)
ROOT
ATOM      1  N1  IND d   1       1.873  -3.057  -5.964  0.00  0.00    -0.196 N 
ATOM      2  C2  IND d   1       0.759  -2.930  -5.183  0.00  0.00     0.054 A 
ATOM      3  C3  IND d   1       0.896  -3.648  -4.046  0.00  0.00    -0.031 A 
ATOM      4  C4  IND d   1       2.906  -5.024  -3.213  0.00  0.00     0.051 A 
ATOM      5  C5  IND d   1       4.141  -5.467  -3.596  0.00  0.00    -0.031 A 
ATOM      6  C6  IND d   1       4.695  -5.120  -4.811  0.00  0.00     0.015 A 
ATOM      7  C7  IND d   1       4.037  -4.304  -5.688  0.00  0.00    -0.016 A 
ATOM      8  C8  IND d   1       2.780  -3.858  -5.305  0.00  0.00    -0.047 A 
ATOM      9  C9  IND d   1       2.195  -4.241  -4.092  0.00  0.00    -0.096 A 
ATOM     10  HN1 IND d   1       1.989  -2.697  -6.736  0.00  0.00     0.298 HD
ENDROOT
TORSDOF 0
ENDMDL
