MODEL 1
REMARK minimizedAffinity 7.78247118
REMARK minimizedRMSD -1
REMARK  0 active torsions:
REMARK  status: ('A' for Active; 'I' for Inactive)
ROOT
ATOM      1  N1  IND d   1       5.222  -2.906  -2.246  0.00  0.00    -0.196 N 
ATOM      2  C2  IND d   1       5.539  -1.692  -1.704  0.00  0.00     0.054 A 
ATOM      3  C3  IND d   1       4.800  -1.464  -0.595  0.00  0.00    -0.031 A 
ATOM      4  C4  IND d   1       3.085  -2.991   0.569  0.00  0.00     0.051 A 
ATOM      5  C5  IND d   1       2.434  -4.184   0.427  0.00  0.00    -0.031 A 
ATOM      6  C6  IND d   1       2.685  -5.030  -0.634  0.00  0.00     0.015 A 
ATOM      7  C7  IND d   1       3.610  -4.718  -1.590  0.00  0.00    -0.016 A 
ATOM      8  C8  IND d   1       4.268  -3.505  -1.452  0.00  0.00    -0.047 A 
ATOM      9  C9  IND d   1       3.987  -2.623  -0.401  0.00  0.00    -0.096 A 
ATOM     10  HN1 IND d   1       5.560  -3.239  -2.963  0.00  0.00     0.298 HD
ENDROOT
TORSDOF 0
ENDMDL
