MODEL 1
REMARK minimizedAffinity -4.84285641
REMARK minimizedRMSD -1
REMARK  0 active torsions:
REMARK  status: ('A' for Active; 'I' for Inactive)
ROOT
ATOM      1  C4' PXY d   1       0.989  -0.925  -0.160  0.00  0.00     0.077 C 
ATOM      2  C1' PXY d   1      -1.589   4.005   1.410  0.00  0.00     0.077 C 
ATOM      3  C1  PXY d   1      -0.918   2.713   0.987  0.00  0.00    -0.082 A 
ATOM      4  C2  PXY d   1      -0.612   1.805   1.899  0.00  0.00     0.003 A 
ATOM      5  C3  PXY d   1       0.024   0.646   1.537  0.00  0.00     0.003 A 
ATOM      6  C4  PXY d   1       0.302   0.389   0.221  0.00  0.00    -0.082 A 
ATOM      7  C5  PXY d   1      -0.017   1.306  -0.717  0.00  0.00     0.003 A 
ATOM      8  C6  PXY d   1      -0.625   2.495  -0.324  0.00  0.00     0.003 A 
ENDROOT
TORSDOF 0
ENDMDL
