MODEL 1
REMARK minimizedAffinity -2.71757412
REMARK minimizedRMSD -1
REMARK  0 active torsions:
REMARK  status: ('A' for Active; 'I' for Inactive)
ROOT
ATOM      1  C4' PXY d   1       0.228   2.729   1.934  0.00  0.00     0.077 C 
ATOM      2  C1' PXY d   1      -0.591  -0.785  -2.582  0.00  0.00     0.077 C 
ATOM      3  C1  PXY d   1      -0.383   0.128  -1.390  0.00  0.00    -0.082 A 
ATOM      4  C2  PXY d   1      -0.159   1.417  -1.585  0.00  0.00     0.003 A 
ATOM      5  C3  PXY d   1       0.063   2.252  -0.520  0.00  0.00     0.003 A 
ATOM      6  C4  PXY d   1       0.003   1.771   0.761  0.00  0.00    -0.082 A 
ATOM      7  C5  PXY d   1      -0.236   0.459   0.969  0.00  0.00     0.003 A 
ATOM      8  C6  PXY d   1      -0.418  -0.379  -0.127  0.00  0.00     0.003 A 
ENDROOT
TORSDOF 0
ENDMDL
