MODEL 1
REMARK minimizedAffinity -3.31771088
REMARK minimizedRMSD -1
REMARK  0 active torsions:
REMARK  status: ('A' for Active; 'I' for Inactive)
ROOT
ATOM      1  C4' PXY d   1       3.053  -0.816   0.564  0.00  0.00     0.077 C 
ATOM      2  C1' PXY d   1      -2.178   1.592   1.064  0.00  0.00     0.077 C 
ATOM      3  C1  PXY d   1      -0.802   0.968   0.943  0.00  0.00    -0.082 A 
ATOM      4  C2  PXY d   1      -0.402   0.487  -0.223  0.00  0.00     0.003 A 
ATOM      5  C3  PXY d   1       0.826  -0.110  -0.342  0.00  0.00     0.003 A 
ATOM      6  C4  PXY d   1       1.676  -0.168   0.730  0.00  0.00    -0.082 A 
ATOM      7  C5  PXY d   1       1.279   0.329   1.921  0.00  0.00     0.003 A 
ATOM      8  C6  PXY d   1       0.012   0.894   2.031  0.00  0.00     0.003 A 
ENDROOT
TORSDOF 0
ENDMDL
