MODEL 1
REMARK minimizedAffinity -3.22620535
REMARK minimizedRMSD -1
REMARK  0 active torsions:
REMARK  status: ('A' for Active; 'I' for Inactive)
ROOT
ATOM      1  C4' PXY d   1       0.610  -1.073  -0.374  0.00  0.00     0.077 C 
ATOM      2  C1' PXY d   1      -1.961   3.694   1.645  0.00  0.00     0.077 C 
ATOM      3  C1  PXY d   1      -1.277   2.446   1.123  0.00  0.00    -0.082 A 
ATOM      4  C2  PXY d   1      -1.616   1.960  -0.059  0.00  0.00     0.003 A 
ATOM      5  C3  PXY d   1      -1.030   0.815  -0.533  0.00  0.00     0.003 A 
ATOM      6  C4  PXY d   1      -0.048   0.190   0.189  0.00  0.00    -0.082 A 
ATOM      7  C5  PXY d   1       0.312   0.686   1.392  0.00  0.00     0.003 A 
ATOM      8  C6  PXY d   1      -0.325   1.826   1.873  0.00  0.00     0.003 A 
ENDROOT
TORSDOF 0
ENDMDL
