MODEL 1
REMARK minimizedAffinity -3.3765924
REMARK minimizedRMSD -1
REMARK  0 active torsions:
REMARK  status: ('A' for Active; 'I' for Inactive)
ROOT
ATOM      1  C4' PXY d   1       0.366   0.364   3.010  0.00  0.00     0.077 C 
ATOM      2  C1' PXY d   1      -1.978   2.438  -1.850  0.00  0.00     0.077 C 
ATOM      3  C1  PXY d   1      -1.367   1.905  -0.569  0.00  0.00    -0.082 A 
ATOM      4  C2  PXY d   1      -0.353   1.058  -0.631  0.00  0.00     0.003 A 
ATOM      5  C3  PXY d   1       0.191   0.541   0.517  0.00  0.00     0.003 A 
ATOM      6  C4  PXY d   1      -0.275   0.936   1.743  0.00  0.00    -0.082 A 
ATOM      7  C5  PXY d   1      -1.303   1.808   1.815  0.00  0.00     0.003 A 
ATOM      8  C6  PXY d   1      -1.868   2.289   0.637  0.00  0.00     0.003 A 
ENDROOT
TORSDOF 0
ENDMDL
