MODEL 1
REMARK minimizedAffinity -2.96057987
REMARK minimizedRMSD -1
REMARK  0 active torsions:
REMARK  status: ('A' for Active; 'I' for Inactive)
ROOT
ATOM      1  C4' PXY d   1       2.007  -0.749   1.902  0.00  0.00     0.077 C 
ATOM      2  C1' PXY d   1      -1.599   2.465  -1.273  0.00  0.00     0.077 C 
ATOM      3  C1  PXY d   1      -0.655   1.612  -0.449  0.00  0.00    -0.082 A 
ATOM      4  C2  PXY d   1      -0.463   1.897   0.829  0.00  0.00     0.003 A 
ATOM      5  C3  PXY d   1       0.412   1.156   1.581  0.00  0.00     0.003 A 
ATOM      6  C4  PXY d   1       1.056   0.079   1.033  0.00  0.00    -0.082 A 
ATOM      7  C5  PXY d   1       0.857  -0.225  -0.267  0.00  0.00     0.003 A 
ATOM      8  C6  PXY d   1      -0.003   0.565  -1.024  0.00  0.00     0.003 A 
ENDROOT
TORSDOF 0
ENDMDL
