MODEL 1
REMARK minimizedAffinity -3.40432477
REMARK minimizedRMSD -1
REMARK  0 active torsions:
REMARK  status: ('A' for Active; 'I' for Inactive)
ROOT
ATOM      1  C4' PXY d   1       2.793  -1.136   0.545  0.00  0.00     0.077 C 
ATOM      2  C1' PXY d   1      -1.783   2.180   1.760  0.00  0.00     0.077 C 
ATOM      3  C1  PXY d   1      -0.589   1.306   1.431  0.00  0.00    -0.082 A 
ATOM      4  C2  PXY d   1       0.233   0.931   2.397  0.00  0.00     0.003 A 
ATOM      5  C3  PXY d   1       1.335   0.167   2.112  0.00  0.00     0.003 A 
ATOM      6  C4  PXY d   1       1.569  -0.262   0.833  0.00  0.00    -0.082 A 
ATOM      7  C5  PXY d   1       0.729   0.108  -0.157  0.00  0.00     0.003 A 
ATOM      8  C6  PXY d   1      -0.361   0.918   0.147  0.00  0.00     0.003 A 
ENDROOT
TORSDOF 0
ENDMDL
