MODEL 1
REMARK minimizedAffinity -2.88652158
REMARK minimizedRMSD -1
REMARK  0 active torsions:
REMARK  status: ('A' for Active; 'I' for Inactive)
ROOT
ATOM      1  C4' PXY d   1      -0.742   2.590  -2.364  0.00  0.00     0.077 C 
ATOM      2  C1' PXY d   1       0.503   1.250   3.120  0.00  0.00     0.077 C 
ATOM      3  C1  PXY d   1       0.189   1.597   1.678  0.00  0.00    -0.082 A 
ATOM      4  C2  PXY d   1      -0.749   2.492   1.410  0.00  0.00     0.003 A 
ATOM      5  C3  PXY d   1      -1.068   2.794   0.112  0.00  0.00     0.003 A 
ATOM      6  C4  PXY d   1      -0.384   2.215  -0.923  0.00  0.00    -0.082 A 
ATOM      7  C5  PXY d   1       0.581   1.309  -0.658  0.00  0.00     0.003 A 
ATOM      8  C6  PXY d   1       0.862   0.985   0.666  0.00  0.00     0.003 A 
ENDROOT
TORSDOF 0
ENDMDL
