MODEL 1
REMARK minimizedAffinity -2.34157324
REMARK minimizedRMSD -1
REMARK  0 active torsions:
REMARK  status: ('A' for Active; 'I' for Inactive)
ROOT
ATOM      1  C4' PXY d   1       2.810  -1.004   0.173  0.00  0.00     0.077 C 
ATOM      2  C1' PXY d   1      -2.284   1.716   0.430  0.00  0.00     0.077 C 
ATOM      3  C1  PXY d   1      -0.954   0.993   0.355  0.00  0.00    -0.082 A 
ATOM      4  C2  PXY d   1      -0.038   1.210   1.286  0.00  0.00     0.003 A 
ATOM      5  C3  PXY d   1       1.182   0.589   1.216  0.00  0.00     0.003 A 
ATOM      6  C4  PXY d   1       1.449  -0.304   0.213  0.00  0.00    -0.082 A 
ATOM      7  C5  PXY d   1       0.517  -0.538  -0.734  0.00  0.00     0.003 A 
ATOM      8  C6  PXY d   1      -0.701   0.133  -0.668  0.00  0.00     0.003 A 
ENDROOT
TORSDOF 0
ENDMDL
