MODEL 1
REMARK minimizedAffinity -0.308822542
REMARK minimizedRMSD -1
REMARK  0 active torsions:
REMARK  status: ('A' for Active; 'I' for Inactive)
ROOT
ATOM      1  O1  BZF d   1       5.321   4.488  -5.961  0.00  0.00    -0.204 OA
ATOM      2  C2  BZF d   1       5.960   5.236  -4.990  0.00  0.00     0.174 A 
ATOM      3  C3  BZF d   1       6.000   4.566  -3.820  0.00  0.00    -0.012 A 
ATOM      4  C3A BZF d   1       5.428   3.285  -4.100  0.00  0.00    -0.107 A 
ATOM      5  C4  BZF d   1       5.204   2.171  -3.342  0.00  0.00     0.055 A 
ATOM      6  C5  BZF d   1       4.560   1.112  -3.899  0.00  0.00    -0.016 A 
ATOM      7  C6  BZF d   1       4.121   1.135  -5.207  0.00  0.00     0.022 A 
ATOM      8  C7  BZF d   1       4.324   2.216  -5.999  0.00  0.00     0.029 A 
ATOM      9  C7A BZF d   1       5.004   3.275  -5.449  0.00  0.00     0.058 A 
ENDROOT
TORSDOF 0
ENDMDL
