MODEL 1
REMARK minimizedAffinity 8.76684093
REMARK minimizedRMSD -1
REMARK  0 active torsions:
REMARK  status: ('A' for Active; 'I' for Inactive)
ROOT
ATOM      1  O1  BZF d   1      -2.369  -1.509  -1.625  0.00  0.00    -0.204 OA
ATOM      2  C2  BZF d   1      -2.777  -2.097  -2.807  0.00  0.00     0.174 A 
ATOM      3  C3  BZF d   1      -2.123  -3.258  -3.014  0.00  0.00    -0.012 A 
ATOM      4  C3A BZF d   1      -1.319  -3.451  -1.846  0.00  0.00    -0.107 A 
ATOM      5  C4  BZF d   1      -0.456  -4.433  -1.452  0.00  0.00     0.055 A 
ATOM      6  C5  BZF d   1       0.226  -4.284  -0.286  0.00  0.00    -0.016 A 
ATOM      7  C6  BZF d   1       0.073  -3.165   0.506  0.00  0.00     0.022 A 
ATOM      8  C7  BZF d   1      -0.775  -2.167   0.160  0.00  0.00     0.029 A 
ATOM      9  C7A BZF d   1      -1.490  -2.330  -1.002  0.00  0.00     0.058 A 
ENDROOT
TORSDOF 0
ENDMDL
