MODEL 1
REMARK minimizedAffinity -0.777537405
REMARK minimizedRMSD -1
REMARK  0 active torsions:
REMARK  status: ('A' for Active; 'I' for Inactive)
ROOT
ATOM      1  O1  BZF d   1       1.966   2.969  -5.968  0.00  0.00    -0.204 OA
ATOM      2  C2  BZF d   1       1.589   4.298  -6.000  0.00  0.00     0.174 A 
ATOM      3  C3  BZF d   1       2.671   5.102  -5.962  0.00  0.00    -0.012 A 
ATOM      4  C3A BZF d   1       3.797   4.220  -5.996  0.00  0.00    -0.107 A 
ATOM      5  C4  BZF d   1       5.148   4.422  -5.998  0.00  0.00     0.055 A 
ATOM      6  C5  BZF d   1       5.977   3.345  -5.962  0.00  0.00    -0.016 A 
ATOM      7  C6  BZF d   1       5.489   2.055  -5.919  0.00  0.00     0.022 A 
ATOM      8  C7  BZF d   1       4.157   1.805  -5.920  0.00  0.00     0.029 A 
ATOM      9  C7A BZF d   1       3.318   2.890  -5.990  0.00  0.00     0.058 A 
ENDROOT
TORSDOF 0
ENDMDL
