MODEL 1
REMARK minimizedAffinity 7.93175459
REMARK minimizedRMSD -1
REMARK  0 active torsions:
REMARK  status: ('A' for Active; 'I' for Inactive)
ROOT
ATOM      1  O1  BZF d   1       2.733   3.928  -5.968  0.00  0.00    -0.204 OA
ATOM      2  C2  BZF d   1       1.486   3.334  -5.947  0.00  0.00     0.174 A 
ATOM      3  C3  BZF d   1       1.595   1.990  -5.986  0.00  0.00    -0.012 A 
ATOM      4  C3A BZF d   1       3.000   1.725  -5.941  0.00  0.00    -0.107 A 
ATOM      5  C4  BZF d   1       3.740   0.577  -5.934  0.00  0.00     0.055 A 
ATOM      6  C5  BZF d   1       5.096   0.664  -5.960  0.00  0.00    -0.016 A 
ATOM      7  C6  BZF d   1       5.744   1.881  -5.997  0.00  0.00     0.022 A 
ATOM      8  C7  BZF d   1       5.054   3.047  -5.999  0.00  0.00     0.029 A 
ATOM      9  C7A BZF d   1       3.684   2.963  -5.941  0.00  0.00     0.058 A 
ENDROOT
TORSDOF 0
ENDMDL
