MODEL 1
REMARK minimizedAffinity 3.469311
REMARK minimizedRMSD -1
REMARK  0 active torsions:
REMARK  status: ('A' for Active; 'I' for Inactive)
ROOT
ATOM      1  O1  BZF d   1      -0.958  -1.502  -2.879  0.00  0.00    -0.204 OA
ATOM      2  C2  BZF d   1      -1.204  -2.126  -1.672  0.00  0.00     0.174 A 
ATOM      3  C3  BZF d   1      -1.892  -3.272  -1.857  0.00  0.00    -0.012 A 
ATOM      4  C3A BZF d   1      -2.007  -3.416  -3.275  0.00  0.00    -0.107 A 
ATOM      5  C4  BZF d   1      -2.573  -4.364  -4.080  0.00  0.00     0.055 A 
ATOM      6  C5  BZF d   1      -2.578  -4.172  -5.425  0.00  0.00    -0.016 A 
ATOM      7  C6  BZF d   1      -2.032  -3.042  -5.999  0.00  0.00     0.022 A 
ATOM      8  C7  BZF d   1      -1.455  -2.076  -5.242  0.00  0.00     0.029 A 
ATOM      9  C7A BZF d   1      -1.419  -2.284  -3.885  0.00  0.00     0.058 A 
ENDROOT
TORSDOF 0
ENDMDL
