MODEL 1
REMARK minimizedAffinity 4.20343876
REMARK minimizedRMSD -1
REMARK  0 active torsions:
REMARK  status: ('A' for Active; 'I' for Inactive)
ROOT
ATOM      1  O1  BZF d   1       3.837   3.026  -1.272  0.00  0.00    -0.204 OA
ATOM      2  C2  BZF d   1       4.923   2.348  -1.792  0.00  0.00     0.174 A 
ATOM      3  C3  BZF d   1       5.274   1.321  -0.990  0.00  0.00    -0.012 A 
ATOM      4  C3A BZF d   1       4.293   1.304   0.051  0.00  0.00    -0.107 A 
ATOM      5  C4  BZF d   1       4.093   0.505   1.140  0.00  0.00     0.055 A 
ATOM      6  C5  BZF d   1       3.084   0.801   2.001  0.00  0.00    -0.016 A 
ATOM      7  C6  BZF d   1       2.260   1.890   1.806  0.00  0.00     0.022 A 
ATOM      8  C7  BZF d   1       2.415   2.709   0.737  0.00  0.00     0.029 A 
ATOM      9  C7A BZF d   1       3.414   2.393  -0.152  0.00  0.00     0.058 A 
ENDROOT
TORSDOF 0
ENDMDL
