MODEL 1
REMARK minimizedAffinity 8.04596043
REMARK minimizedRMSD -1
REMARK  0 active torsions:
REMARK  status: ('A' for Active; 'I' for Inactive)
ROOT
ATOM      1  O1  BZF d   1       0.533  -4.532   0.818  0.00  0.00    -0.204 OA
ATOM      2  C2  BZF d   1       0.810  -3.412   0.059  0.00  0.00     0.174 A 
ATOM      3  C3  BZF d   1       0.158  -2.334   0.540  0.00  0.00    -0.012 A 
ATOM      4  C3A BZF d   1      -0.500  -2.791   1.726  0.00  0.00    -0.107 A 
ATOM      5  C4  BZF d   1      -1.293  -2.179   2.654  0.00  0.00     0.055 A 
ATOM      6  C5  BZF d   1      -1.836  -2.925   3.653  0.00  0.00    -0.016 A 
ATOM      7  C6  BZF d   1      -1.612  -4.282   3.749  0.00  0.00     0.022 A 
ATOM      8  C7  BZF d   1      -0.829  -4.932   2.854  0.00  0.00     0.029 A 
ATOM      9  C7A BZF d   1      -0.252  -4.176   1.864  0.00  0.00     0.058 A 
ENDROOT
TORSDOF 0
ENDMDL
