MODEL 1
REMARK minimizedAffinity 13.5196333
REMARK minimizedRMSD -1
REMARK  0 active torsions:
REMARK  status: ('A' for Active; 'I' for Inactive)
ROOT
ATOM      1  O1  BZF d   1       1.757  -0.548   4.763  0.00  0.00    -0.204 OA
ATOM      2  C2  BZF d   1       0.478  -0.134   4.445  0.00  0.00     0.174 A 
ATOM      3  C3  BZF d   1       0.434   0.365   3.193  0.00  0.00    -0.012 A 
ATOM      4  C3A BZF d   1       1.750   0.171   2.665  0.00  0.00    -0.107 A 
ATOM      5  C4  BZF d   1       2.327   0.447   1.458  0.00  0.00     0.055 A 
ATOM      6  C5  BZF d   1       3.653   0.200   1.289  0.00  0.00    -0.016 A 
ATOM      7  C6  BZF d   1       4.431  -0.317   2.304  0.00  0.00     0.022 A 
ATOM      8  C7  BZF d   1       3.901  -0.612   3.516  0.00  0.00     0.029 A 
ATOM      9  C7A BZF d   1       2.555  -0.394   3.680  0.00  0.00     0.058 A 
ENDROOT
TORSDOF 0
ENDMDL
