MODEL 1
REMARK minimizedAffinity 7.05114698
REMARK minimizedRMSD -1
REMARK  0 active torsions:
REMARK  status: ('A' for Active; 'I' for Inactive)
ROOT
ATOM      1  O1  BZF d   1      -2.406  -1.898  -2.503  0.00  0.00    -0.204 OA
ATOM      2  C2  BZF d   1      -1.964  -2.742  -3.503  0.00  0.00     0.174 A 
ATOM      3  C3  BZF d   1      -0.922  -3.485  -3.076  0.00  0.00    -0.012 A 
ATOM      4  C3A BZF d   1      -0.757  -3.144  -1.696  0.00  0.00    -0.107 A 
ATOM      5  C4  BZF d   1       0.105  -3.562  -0.723  0.00  0.00     0.055 A 
ATOM      6  C5  BZF d   1       0.049  -2.978   0.503  0.00  0.00    -0.016 A 
ATOM      7  C6  BZF d   1      -0.851  -1.972   0.788  0.00  0.00     0.022 A 
ATOM      8  C7  BZF d   1      -1.730  -1.528  -0.143  0.00  0.00     0.029 A 
ATOM      9  C7A BZF d   1      -1.698  -2.139  -1.373  0.00  0.00     0.058 A 
ENDROOT
TORSDOF 0
ENDMDL
