MODEL 1
REMARK minimizedAffinity 6.14855719
REMARK minimizedRMSD -1
REMARK  0 active torsions:
REMARK  status: ('A' for Active; 'I' for Inactive)
ROOT
ATOM      1  O1  BZF d   1       2.242   4.178  -4.426  0.00  0.00    -0.204 OA
ATOM      2  C2  BZF d   1       1.961   3.750  -5.709  0.00  0.00     0.174 A 
ATOM      3  C3  BZF d   1       2.649   2.627  -6.000  0.00  0.00    -0.012 A 
ATOM      4  C3A BZF d   1       3.336   2.283  -4.793  0.00  0.00    -0.107 A 
ATOM      5  C4  BZF d   1       4.169   1.258  -4.446  0.00  0.00     0.055 A 
ATOM      6  C5  BZF d   1       4.730   1.253  -3.208  0.00  0.00    -0.016 A 
ATOM      7  C6  BZF d   1       4.484   2.257  -2.295  0.00  0.00     0.022 A 
ATOM      8  C7  BZF d   1       3.660   3.292  -2.592  0.00  0.00     0.029 A 
ATOM      9  C7A BZF d   1       3.066   3.283  -3.830  0.00  0.00     0.058 A 
ENDROOT
TORSDOF 0
ENDMDL
