MODEL 1
REMARK minimizedAffinity 9.38578415
REMARK minimizedRMSD -1
REMARK  0 active torsions:
REMARK  status: ('A' for Active; 'I' for Inactive)
ROOT
ATOM      1  O1  BZF d   1      -2.543  -1.526  -5.176  0.00  0.00    -0.204 OA
ATOM      2  C2  BZF d   1      -2.617  -2.633  -6.000  0.00  0.00     0.174 A 
ATOM      3  C3  BZF d   1      -2.183  -3.736  -5.358  0.00  0.00    -0.012 A 
ATOM      4  C3A BZF d   1      -1.901  -3.308  -4.022  0.00  0.00    -0.107 A 
ATOM      5  C4  BZF d   1      -1.453  -3.953  -2.904  0.00  0.00     0.055 A 
ATOM      6  C5  BZF d   1      -1.213  -3.232  -1.777  0.00  0.00    -0.016 A 
ATOM      7  C6  BZF d   1      -1.406  -1.866  -1.735  0.00  0.00     0.022 A 
ATOM      8  C7  BZF d   1      -1.854  -1.184  -2.816  0.00  0.00     0.029 A 
ATOM      9  C7A BZF d   1      -2.129  -1.915  -3.946  0.00  0.00     0.058 A 
ENDROOT
TORSDOF 0
ENDMDL
