MODEL 1
REMARK minimizedAffinity 12.9429531
REMARK minimizedRMSD -1
REMARK  0 active torsions:
REMARK  status: ('A' for Active; 'I' for Inactive)
ROOT
ATOM      1  O1  BZF d   1      -2.169  -1.544  -1.577  0.00  0.00    -0.204 OA
ATOM      2  C2  BZF d   1      -2.902  -1.945  -2.677  0.00  0.00     0.174 A 
ATOM      3  C3  BZF d   1      -2.580  -3.205  -3.033  0.00  0.00    -0.012 A 
ATOM      4  C3A BZF d   1      -1.650  -3.650  -2.041  0.00  0.00    -0.107 A 
ATOM      5  C4  BZF d   1      -0.981  -4.824  -1.841  0.00  0.00     0.055 A 
ATOM      6  C5  BZF d   1      -0.089  -4.910  -0.819  0.00  0.00    -0.016 A 
ATOM      7  C6  BZF d   1       0.161  -3.842   0.018  0.00  0.00     0.022 A 
ATOM      8  C7  BZF d   1      -0.482  -2.659  -0.138  0.00  0.00     0.029 A 
ATOM      9  C7A BZF d   1      -1.407  -2.580  -1.150  0.00  0.00     0.058 A 
ENDROOT
TORSDOF 0
ENDMDL
