MODEL 1
REMARK minimizedAffinity 11.8225222
REMARK minimizedRMSD -1
REMARK  0 active torsions:
REMARK  status: ('A' for Active; 'I' for Inactive)
ROOT
ATOM      1  O1  BZF d   1      -3.217  -2.990  -2.418  0.00  0.00    -0.204 OA
ATOM      2  C2  BZF d   1      -2.250  -2.356  -1.662  0.00  0.00     0.174 A 
ATOM      3  C3  BZF d   1      -1.147  -2.116  -2.400  0.00  0.00    -0.012 A 
ATOM      4  C3A BZF d   1      -1.477  -2.549  -3.723  0.00  0.00    -0.107 A 
ATOM      5  C4  BZF d   1      -0.796  -2.555  -4.906  0.00  0.00     0.055 A 
ATOM      6  C5  BZF d   1      -1.377  -3.115  -6.000  0.00  0.00    -0.016 A 
ATOM      7  C6  BZF d   1      -2.634  -3.682  -5.945  0.00  0.00     0.022 A 
ATOM      8  C7  BZF d   1      -3.350  -3.695  -4.794  0.00  0.00     0.029 A 
ATOM      9  C7A BZF d   1      -2.779  -3.100  -3.695  0.00  0.00     0.058 A 
ENDROOT
TORSDOF 0
ENDMDL
