MODEL 1
REMARK minimizedAffinity 12.3354988
REMARK minimizedRMSD -1
REMARK  0 active torsions:
REMARK  status: ('A' for Active; 'I' for Inactive)
ROOT
ATOM      1  O1  BZF d   1      -0.315  -2.936   2.319  0.00  0.00    -0.204 OA
ATOM      2  C2  BZF d   1      -1.255  -2.265   3.077  0.00  0.00     0.174 A 
ATOM      3  C3  BZF d   1      -2.106  -1.580   2.287  0.00  0.00    -0.012 A 
ATOM      4  C3A BZF d   1      -1.727  -1.914   0.948  0.00  0.00    -0.107 A 
ATOM      5  C4  BZF d   1      -2.208  -1.559  -0.280  0.00  0.00     0.055 A 
ATOM      6  C5  BZF d   1      -1.567  -2.001  -1.394  0.00  0.00    -0.016 A 
ATOM      7  C6  BZF d   1      -0.441  -2.794  -1.316  0.00  0.00     0.022 A 
ATOM      8  C7  BZF d   1       0.070  -3.176  -0.121  0.00  0.00     0.029 A 
ATOM      9  C7A BZF d   1      -0.595  -2.758   1.006  0.00  0.00     0.058 A 
ENDROOT
TORSDOF 0
ENDMDL
