MODEL 1
REMARK minimizedAffinity 13.0656147
REMARK minimizedRMSD -1
REMARK  0 active torsions:
REMARK  status: ('A' for Active; 'I' for Inactive)
ROOT
ATOM      1  O1  BZF d   1      -0.895  -3.751  -2.636  0.00  0.00    -0.204 OA
ATOM      2  C2  BZF d   1      -1.220  -2.642  -1.879  0.00  0.00     0.174 A 
ATOM      3  C3  BZF d   1      -2.006  -1.798  -2.578  0.00  0.00    -0.012 A 
ATOM      4  C3A BZF d   1      -2.259  -2.462  -3.820  0.00  0.00    -0.107 A 
ATOM      5  C4  BZF d   1      -2.989  -2.136  -4.927  0.00  0.00     0.055 A 
ATOM      6  C5  BZF d   1      -2.971  -2.971  -5.999  0.00  0.00    -0.016 A 
ATOM      7  C6  BZF d   1      -2.233  -4.136  -6.000  0.00  0.00     0.022 A 
ATOM      8  C7  BZF d   1      -1.498  -4.505  -4.922  0.00  0.00     0.029 A 
ATOM      9  C7A BZF d   1      -1.539  -3.679  -3.825  0.00  0.00     0.058 A 
ENDROOT
TORSDOF 0
ENDMDL
