MODEL 1
REMARK minimizedAffinity 11.8205414
REMARK minimizedRMSD -1
REMARK  0 active torsions:
REMARK  status: ('A' for Active; 'I' for Inactive)
ROOT
ATOM      1  O1  BZF d   1      -1.985  -1.814  -1.658  0.00  0.00    -0.204 OA
ATOM      2  C2  BZF d   1      -2.372  -2.340  -2.875  0.00  0.00     0.174 A 
ATOM      3  C3  BZF d   1      -1.764  -3.522  -3.101  0.00  0.00    -0.012 A 
ATOM      4  C3A BZF d   1      -1.017  -3.794  -1.911  0.00  0.00    -0.107 A 
ATOM      5  C4  BZF d   1      -0.216  -4.830  -1.522  0.00  0.00     0.055 A 
ATOM      6  C5  BZF d   1       0.425  -4.755  -0.326  0.00  0.00    -0.016 A 
ATOM      7  C6  BZF d   1       0.293  -3.659   0.502  0.00  0.00     0.022 A 
ATOM      8  C7  BZF d   1      -0.495  -2.610   0.161  0.00  0.00     0.029 A 
ATOM      9  C7A BZF d   1      -1.170  -2.697  -1.032  0.00  0.00     0.058 A 
ENDROOT
TORSDOF 0
ENDMDL
