MODEL 1
REMARK minimizedAffinity 8.47682476
REMARK minimizedRMSD -1
REMARK  0 active torsions:
REMARK  status: ('A' for Active; 'I' for Inactive)
ROOT
ATOM      1  O1  BZF d   1      -2.590  -1.920  -5.141  0.00  0.00    -0.204 OA
ATOM      2  C2  BZF d   1      -2.588  -3.011  -5.989  0.00  0.00     0.174 A 
ATOM      3  C3  BZF d   1      -2.212  -4.127  -5.331  0.00  0.00    -0.012 A 
ATOM      4  C3A BZF d   1      -2.053  -3.724  -3.967  0.00  0.00    -0.107 A 
ATOM      5  C4  BZF d   1      -1.707  -4.390  -2.827  0.00  0.00     0.055 A 
ATOM      6  C5  BZF d   1      -1.570  -3.691  -1.669  0.00  0.00    -0.016 A 
ATOM      7  C6  BZF d   1      -1.767  -2.327  -1.618  0.00  0.00     0.022 A 
ATOM      8  C7  BZF d   1      -2.117  -1.624  -2.722  0.00  0.00     0.029 A 
ATOM      9  C7A BZF d   1      -2.288  -2.332  -3.886  0.00  0.00     0.058 A 
ENDROOT
TORSDOF 0
ENDMDL
