MODEL 1
REMARK minimizedAffinity 6.99701643
REMARK minimizedRMSD -1
REMARK  0 active torsions:
REMARK  status: ('A' for Active; 'I' for Inactive)
ROOT
ATOM      1  O1  BZF d   1      -3.261  -2.534  -2.645  0.00  0.00    -0.204 OA
ATOM      2  C2  BZF d   1      -2.166  -2.182  -1.880  0.00  0.00     0.174 A 
ATOM      3  C3  BZF d   1      -1.018  -2.456  -2.534  0.00  0.00    -0.012 A 
ATOM      4  C3A BZF d   1      -1.423  -2.928  -3.823  0.00  0.00    -0.107 A 
ATOM      5  C4  BZF d   1      -0.738  -3.343  -4.929  0.00  0.00     0.055 A 
ATOM      6  C5  BZF d   1      -1.432  -3.811  -5.999  0.00  0.00    -0.016 A 
ATOM      7  C6  BZF d   1      -2.810  -3.883  -5.996  0.00  0.00     0.022 A 
ATOM      8  C7  BZF d   1      -3.534  -3.477  -4.924  0.00  0.00     0.029 A 
ATOM      9  C7A BZF d   1      -2.836  -2.973  -3.854  0.00  0.00     0.058 A 
ENDROOT
TORSDOF 0
ENDMDL
