MODEL 1
REMARK minimizedAffinity 3.10700822
REMARK minimizedRMSD -1
REMARK  0 active torsions:
REMARK  status: ('A' for Active; 'I' for Inactive)
ROOT
ATOM      1  O1  BZF d   1       6.000  -0.537  -4.322  0.00  0.00    -0.204 OA
ATOM      2  C2  BZF d   1       5.778   0.526  -5.176  0.00  0.00     0.174 A 
ATOM      3  C3  BZF d   1       4.742   0.270  -6.000  0.00  0.00    -0.012 A 
ATOM      4  C3A BZF d   1       4.229  -0.997  -5.577  0.00  0.00    -0.107 A 
ATOM      5  C4  BZF d   1       3.190  -1.777  -5.998  0.00  0.00     0.055 A 
ATOM      6  C5  BZF d   1       3.001  -2.993  -5.421  0.00  0.00    -0.016 A 
ATOM      7  C6  BZF d   1       3.834  -3.462  -4.426  0.00  0.00     0.022 A 
ATOM      8  C7  BZF d   1       4.874  -2.721  -3.972  0.00  0.00     0.029 A 
ATOM      9  C7A BZF d   1       5.048  -1.478  -4.530  0.00  0.00     0.058 A 
ENDROOT
TORSDOF 0
ENDMDL
