MODEL 1
REMARK minimizedAffinity 5.87962961
REMARK minimizedRMSD -1
REMARK  0 active torsions:
REMARK  status: ('A' for Active; 'I' for Inactive)
ROOT
ATOM      1  O1  BZF d   1      -2.200  -1.868  -5.303  0.00  0.00    -0.204 OA
ATOM      2  C2  BZF d   1      -2.276  -3.058  -6.000  0.00  0.00     0.174 A 
ATOM      3  C3  BZF d   1      -1.868  -4.089  -5.232  0.00  0.00    -0.012 A 
ATOM      4  C3A BZF d   1      -1.603  -3.518  -3.946  0.00  0.00    -0.107 A 
ATOM      5  C4  BZF d   1      -1.182  -4.040  -2.756  0.00  0.00     0.055 A 
ATOM      6  C5  BZF d   1      -0.951  -3.201  -1.713  0.00  0.00    -0.016 A 
ATOM      7  C6  BZF d   1      -1.125  -1.837  -1.825  0.00  0.00     0.022 A 
ATOM      8  C7  BZF d   1      -1.546  -1.274  -2.983  0.00  0.00     0.029 A 
ATOM      9  C7A BZF d   1      -1.812  -2.122  -4.030  0.00  0.00     0.058 A 
ENDROOT
TORSDOF 0
ENDMDL
