MODEL 1
REMARK minimizedAffinity -5.17367983
REMARK minimizedRMSD -1
REMARK  2 active torsions:
REMARK  status: ('A' for Active; 'I' for Inactive)
REMARK    1  A    between atoms: C2'_3  and  C1'_4 
REMARK    2  A    between atoms: C1'_4  and  C1_5 
ROOT
ATOM      1  C1  I4B d   1      -0.153   0.545   0.876  0.00  0.00    -0.075 A 
ATOM      2  C2  I4B d   1       0.199   1.131   2.066  0.00  0.00     0.003 A 
ATOM      3  C3  I4B d   1      -0.285   2.420   2.396  0.00  0.00     0.002 A 
ATOM      4  C4  I4B d   1      -1.071   3.104   1.491  0.00  0.00    -0.004 A 
ATOM      5  C5  I4B d   1      -1.445   2.499   0.295  0.00  0.00     0.002 A 
ATOM      6  C6  I4B d   1      -0.994   1.206  -0.010  0.00  0.00     0.003 A 
ENDROOT
BRANCH   1   7
ATOM      7  C1' I4B d   1       0.402  -0.804   0.545  0.00  0.00     0.060 C 
BRANCH   7   8
ATOM      8  C2' I4B d   1       0.067  -1.104  -0.902  0.00  0.00    -0.013 C 
ATOM      9  C4' I4B d   1       1.154  -0.621  -1.825  0.00  0.00     0.013 C 
ATOM     10  C3' I4B d   1      -0.136  -2.585  -1.032  0.00  0.00     0.013 C 
ENDBRANCH   7   8
ENDBRANCH   1   7
TORSDOF 2
ENDMDL
