MODEL 1
REMARK minimizedAffinity -0.466163963
REMARK minimizedRMSD -1
REMARK  2 active torsions:
REMARK  status: ('A' for Active; 'I' for Inactive)
REMARK    1  A    between atoms: C2'_3  and  C1'_4 
REMARK    2  A    between atoms: C1'_4  and  C1_5 
ROOT
ATOM      1  C1  I4B d   1       0.054  -1.851  -0.931  0.00  0.00    -0.075 A 
ATOM      2  C2  I4B d   1       0.894  -2.897  -0.643  0.00  0.00     0.003 A 
ATOM      3  C3  I4B d   1       0.565  -4.210  -1.059  0.00  0.00     0.002 A 
ATOM      4  C4  I4B d   1      -0.630  -4.437  -1.711  0.00  0.00    -0.004 A 
ATOM      5  C5  I4B d   1      -1.469  -3.371  -2.022  0.00  0.00     0.002 A 
ATOM      6  C6  I4B d   1      -1.120  -2.068  -1.640  0.00  0.00     0.003 A 
ENDROOT
BRANCH   1   7
ATOM      7  C1' I4B d   1       0.416  -0.482  -0.448  0.00  0.00     0.060 C 
BRANCH   7   8
ATOM      8  C2' I4B d   1      -0.615   0.490  -0.982  0.00  0.00    -0.013 C 
ATOM      9  C4' I4B d   1      -1.114   1.408   0.103  0.00  0.00     0.013 C 
ATOM     10  C3' I4B d   1       0.015   1.266  -2.100  0.00  0.00     0.013 C 
ENDBRANCH   7   8
ENDBRANCH   1   7
TORSDOF 2
ENDMDL
