MODEL 1
REMARK minimizedAffinity -2.94601226
REMARK minimizedRMSD -1
REMARK  2 active torsions:
REMARK  status: ('A' for Active; 'I' for Inactive)
REMARK    1  A    between atoms: C2'_3  and  C1'_4 
REMARK    2  A    between atoms: C1'_4  and  C1_5 
ROOT
ATOM      1  C1  I4B d   1       0.941  -1.584  -0.609  0.00  0.00    -0.075 A 
ATOM      2  C2  I4B d   1       0.253  -0.712  -1.416  0.00  0.00     0.003 A 
ATOM      3  C3  I4B d   1      -0.229   0.513  -0.893  0.00  0.00     0.002 A 
ATOM      4  C4  I4B d   1      -0.045   0.800   0.444  0.00  0.00    -0.004 A 
ATOM      5  C5  I4B d   1       0.672  -0.075   1.254  0.00  0.00     0.002 A 
ATOM      6  C6  I4B d   1       1.179  -1.269   0.722  0.00  0.00     0.003 A 
ENDROOT
BRANCH   1   7
ATOM      7  C1' I4B d   1       1.406  -2.884  -1.186  0.00  0.00     0.060 C 
BRANCH   7   8
ATOM      8  C2' I4B d   1       0.291  -3.895  -1.018  0.00  0.00    -0.013 C 
ATOM      9  C4' I4B d   1      -0.360  -4.213  -2.338  0.00  0.00     0.013 C 
ATOM     10  C3' I4B d   1       0.873  -5.127  -0.390  0.00  0.00     0.013 C 
ENDBRANCH   7   8
ENDBRANCH   1   7
TORSDOF 2
ENDMDL
