MODEL 1
REMARK minimizedAffinity 0.647748649
REMARK minimizedRMSD -1
REMARK  2 active torsions:
REMARK  status: ('A' for Active; 'I' for Inactive)
REMARK    1  A    between atoms: C2'_3  and  C1'_4 
REMARK    2  A    between atoms: C1'_4  and  C1_5 
ROOT
ATOM      1  C1  I4B d   1       0.430  -0.693  -0.292  0.00  0.00    -0.075 A 
ATOM      2  C2  I4B d   1      -0.005   0.428  -0.954  0.00  0.00     0.003 A 
ATOM      3  C3  I4B d   1      -0.259   1.624  -0.241  0.00  0.00     0.002 A 
ATOM      4  C4  I4B d   1      -0.115   1.640   1.132  0.00  0.00    -0.004 A 
ATOM      5  C5  I4B d   1       0.348   0.510   1.799  0.00  0.00     0.002 A 
ATOM      6  C6  I4B d   1       0.635  -0.661   1.081  0.00  0.00     0.003 A 
ENDROOT
BRANCH   1   7
ATOM      7  C1' I4B d   1       0.658  -1.949  -1.073  0.00  0.00     0.060 C 
BRANCH   7   8
ATOM      8  C2' I4B d   1      -0.640  -2.731  -1.087  0.00  0.00    -0.013 C 
ATOM      9  C4' I4B d   1      -1.470  -2.386  -2.295  0.00  0.00     0.013 C 
ATOM     10  C3' I4B d   1      -0.300  -4.191  -1.062  0.00  0.00     0.013 C 
ENDBRANCH   7   8
ENDBRANCH   1   7
TORSDOF 2
ENDMDL
