MODEL 1
REMARK minimizedAffinity -4.27746248
REMARK minimizedRMSD -1
REMARK  2 active torsions:
REMARK  status: ('A' for Active; 'I' for Inactive)
REMARK    1  A    between atoms: C2'_3  and  C1'_4 
REMARK    2  A    between atoms: C1'_4  and  C1_5 
ROOT
ATOM      1  C1  I4B d   1       0.033   1.188   0.071  0.00  0.00    -0.075 A 
ATOM      2  C2  I4B d   1       0.065   1.944   1.217  0.00  0.00     0.003 A 
ATOM      3  C3  I4B d   1       0.012   3.357   1.141  0.00  0.00     0.002 A 
ATOM      4  C4  I4B d   1      -0.021   3.970  -0.095  0.00  0.00    -0.004 A 
ATOM      5  C5  I4B d   1      -0.077   3.202  -1.255  0.00  0.00     0.002 A 
ATOM      6  C6  I4B d   1      -0.062   1.802  -1.171  0.00  0.00     0.003 A 
ENDROOT
BRANCH   1   7
ATOM      7  C1' I4B d   1       0.125  -0.300   0.187  0.00  0.00     0.060 C 
BRANCH   7   8
ATOM      8  C2' I4B d   1       0.304  -0.867  -1.207  0.00  0.00    -0.013 C 
ATOM      9  C4' I4B d   1       0.674  -2.326  -1.159  0.00  0.00     0.013 C 
ATOM     10  C3' I4B d   1      -0.975  -0.656  -1.961  0.00  0.00     0.013 C 
ENDBRANCH   7   8
ENDBRANCH   1   7
TORSDOF 2
ENDMDL
