MODEL 1
REMARK minimizedAffinity -4.52452946
REMARK minimizedRMSD -1
REMARK  2 active torsions:
REMARK  status: ('A' for Active; 'I' for Inactive)
REMARK    1  A    between atoms: C2'_3  and  C1'_4 
REMARK    2  A    between atoms: C1'_4  and  C1_5 
ROOT
ATOM      1  C1  I4B d   1      -0.709   0.888   0.737  0.00  0.00    -0.075 A 
ATOM      2  C2  I4B d   1      -0.733   0.714  -0.624  0.00  0.00     0.003 A 
ATOM      3  C3  I4B d   1       0.230  -0.111  -1.254  0.00  0.00     0.002 A 
ATOM      4  C4  I4B d   1       1.223  -0.698  -0.496  0.00  0.00    -0.004 A 
ATOM      5  C5  I4B d   1       1.232  -0.538   0.886  0.00  0.00     0.002 A 
ATOM      6  C6  I4B d   1       0.253   0.250   1.509  0.00  0.00     0.003 A 
ENDROOT
BRANCH   1   7
ATOM      7  C1' I4B d   1      -1.721   1.793   1.366  0.00  0.00     0.060 C 
BRANCH   7   8
ATOM      8  C2' I4B d   1      -1.187   3.209   1.298  0.00  0.00    -0.013 C 
ATOM      9  C4' I4B d   1       0.203   3.296   1.872  0.00  0.00     0.013 C 
ATOM     10  C3' I4B d   1      -1.208   3.644  -0.137  0.00  0.00     0.013 C 
ENDBRANCH   7   8
ENDBRANCH   1   7
TORSDOF 2
ENDMDL
