MODEL 1
REMARK minimizedAffinity -2.88533854
REMARK minimizedRMSD -1
REMARK  2 active torsions:
REMARK  status: ('A' for Active; 'I' for Inactive)
REMARK    1  A    between atoms: C2'_3  and  C1'_4 
REMARK    2  A    between atoms: C1'_4  and  C1_5 
ROOT
ATOM      1  C1  I4B d   1      -0.072   0.135  -0.333  0.00  0.00    -0.075 A 
ATOM      2  C2  I4B d   1       0.144   0.092   1.022  0.00  0.00     0.003 A 
ATOM      3  C3  I4B d   1      -0.267   1.169   1.844  0.00  0.00     0.002 A 
ATOM      4  C4  I4B d   1      -0.841   2.284   1.267  0.00  0.00    -0.004 A 
ATOM      5  C5  I4B d   1      -1.080   2.315  -0.104  0.00  0.00     0.002 A 
ATOM      6  C6  I4B d   1      -0.705   1.229  -0.908  0.00  0.00     0.003 A 
ENDROOT
BRANCH   1   7
ATOM      7  C1' I4B d   1       0.404  -1.006  -1.175  0.00  0.00     0.060 C 
BRANCH   7   8
ATOM      8  C2' I4B d   1      -0.497  -2.194  -0.906  0.00  0.00    -0.013 C 
ATOM      9  C4' I4B d   1      -1.526  -2.355  -1.993  0.00  0.00     0.013 C 
ATOM     10  C3' I4B d   1       0.368  -3.414  -0.792  0.00  0.00     0.013 C 
ENDBRANCH   7   8
ENDBRANCH   1   7
TORSDOF 2
ENDMDL
