MODEL 1
REMARK minimizedAffinity -2.92671394
REMARK minimizedRMSD -1
REMARK  2 active torsions:
REMARK  status: ('A' for Active; 'I' for Inactive)
REMARK    1  A    between atoms: C2'_3  and  C1'_4 
REMARK    2  A    between atoms: C1'_4  and  C1_5 
ROOT
ATOM      1  C1  I4B d   1       0.019  -0.126  -0.257  0.00  0.00    -0.075 A 
ATOM      2  C2  I4B d   1       0.698  -0.037   0.932  0.00  0.00     0.003 A 
ATOM      3  C3  I4B d   1       0.288   0.892   1.919  0.00  0.00     0.002 A 
ATOM      4  C4  I4B d   1      -0.767   1.742   1.656  0.00  0.00    -0.004 A 
ATOM      5  C5  I4B d   1      -1.468   1.635   0.459  0.00  0.00     0.002 A 
ATOM      6  C6  I4B d   1      -1.081   0.687  -0.499  0.00  0.00     0.003 A 
ENDROOT
BRANCH   1   7
ATOM      7  C1' I4B d   1       0.499  -1.095  -1.291  0.00  0.00     0.060 C 
BRANCH   7   8
ATOM      8  C2' I4B d   1      -0.273  -2.387  -1.113  0.00  0.00    -0.013 C 
ATOM      9  C4' I4B d   1      -1.351  -2.526  -2.154  0.00  0.00     0.013 C 
ATOM     10  C3' I4B d   1       0.703  -3.523  -1.189  0.00  0.00     0.013 C 
ENDBRANCH   7   8
ENDBRANCH   1   7
TORSDOF 2
ENDMDL
