MODEL 1
REMARK minimizedAffinity -5.49862862
REMARK minimizedRMSD -1
REMARK  2 active torsions:
REMARK  status: ('A' for Active; 'I' for Inactive)
REMARK    1  A    between atoms: C2'_3  and  C1'_4 
REMARK    2  A    between atoms: C1'_4  and  C1_5 
ROOT
ATOM      1  C1  I4B d   1      -0.063   0.642   1.077  0.00  0.00    -0.075 A 
ATOM      2  C2  I4B d   1       0.053   1.817   0.378  0.00  0.00     0.003 A 
ATOM      3  C3  I4B d   1      -0.646   2.972   0.805  0.00  0.00     0.002 A 
ATOM      4  C4  I4B d   1      -1.484   2.894   1.899  0.00  0.00    -0.004 A 
ATOM      5  C5  I4B d   1      -1.583   1.708   2.619  0.00  0.00     0.002 A 
ATOM      6  C6  I4B d   1      -0.859   0.577   2.213  0.00  0.00     0.003 A 
ENDROOT
BRANCH   1   7
ATOM      7  C1' I4B d   1       0.663  -0.568   0.579  0.00  0.00     0.060 C 
BRANCH   7   8
ATOM      8  C2' I4B d   1       0.160  -0.872  -0.818  0.00  0.00    -0.013 C 
ATOM      9  C4' I4B d   1       1.169  -0.468  -1.860  0.00  0.00     0.013 C 
ATOM     10  C3' I4B d   1      -0.138  -2.339  -0.893  0.00  0.00     0.013 C 
ENDBRANCH   7   8
ENDBRANCH   1   7
TORSDOF 2
ENDMDL
