MODEL 1
REMARK minimizedAffinity 1.30397201
REMARK minimizedRMSD -1
REMARK  2 active torsions:
REMARK  status: ('A' for Active; 'I' for Inactive)
REMARK    1  A    between atoms: C2'_3  and  C1'_4 
REMARK    2  A    between atoms: C1'_4  and  C1_5 
ROOT
ATOM      1  C1  I4B d   1       0.157  -4.825  -1.161  0.00  0.00    -0.075 A 
ATOM      2  C2  I4B d   1      -0.104  -5.044  -2.491  0.00  0.00     0.003 A 
ATOM      3  C3  I4B d   1      -1.093  -4.282  -3.158  0.00  0.00     0.002 A 
ATOM      4  C4  I4B d   1      -1.827  -3.352  -2.450  0.00  0.00    -0.004 A 
ATOM      5  C5  I4B d   1      -1.545  -3.115  -1.108  0.00  0.00     0.002 A 
ATOM      6  C6  I4B d   1      -0.539  -3.847  -0.462  0.00  0.00     0.003 A 
ENDROOT
BRANCH   1   7
ATOM      7  C1' I4B d   1       1.185  -5.671  -0.479  0.00  0.00     0.060 C 
BRANCH   7   8
ATOM      8  C2' I4B d   1       2.552  -5.153  -0.875  0.00  0.00    -0.013 C 
ATOM      9  C4' I4B d   1       2.709  -3.698  -0.520  0.00  0.00     0.013 C 
ATOM     10  C3' I4B d   1       3.584  -5.994  -0.183  0.00  0.00     0.013 C 
ENDBRANCH   7   8
ENDBRANCH   1   7
TORSDOF 2
ENDMDL
