MODEL 1
REMARK minimizedAffinity -5.45248413
REMARK minimizedRMSD -1
REMARK  1 active torsions:
REMARK  status: ('A' for Active; 'I' for Inactive)
REMARK    1  A    between atoms: C3_4  and  O_7 
ROOT
ATOM      1  C   UNL d   1       2.581   0.199  -2.355  0.00  0.00    -0.033 A 
ATOM      2  C1  UNL d   1       1.843   1.378  -2.483  0.00  0.00     0.039 A 
ATOM      3  C2  UNL d   1       0.626   1.518  -1.813  0.00  0.00    -0.080 A 
ATOM      4  C3  UNL d   1       0.160   0.474  -1.018  0.00  0.00     0.150 A 
ATOM      5  C4  UNL d   1       0.892  -0.701  -0.883  0.00  0.00    -0.007 A 
ATOM      6  C5  UNL d   1       2.106  -0.839  -1.554  0.00  0.00     0.039 A 
ENDROOT
BRANCH   4   7
ATOM      7  O   UNL d   1      -1.024   0.563  -0.349  0.00  0.00    -0.526 OA
ATOM      8  H5  UNL d   1      -1.433   1.419  -0.559  0.00  0.00     0.418 HD
ENDBRANCH   4   7
TORSDOF 1
ENDMDL
