MODEL 1
REMARK minimizedAffinity -5.61539555
REMARK minimizedRMSD -1
REMARK  1 active torsions:
REMARK  status: ('A' for Active; 'I' for Inactive)
REMARK    1  A    between atoms: C3_4  and  O_7 
ROOT
ATOM      1  C   UNL d   1       0.033   1.282  -0.861  0.00  0.00    -0.033 A 
ATOM      2  C1  UNL d   1       0.184   0.131  -0.086  0.00  0.00     0.039 A 
ATOM      3  C2  UNL d   1       1.338  -0.645  -0.203  0.00  0.00    -0.080 A 
ATOM      4  C3  UNL d   1       2.333  -0.260  -1.097  0.00  0.00     0.150 A 
ATOM      5  C4  UNL d   1       2.191   0.888  -1.870  0.00  0.00    -0.007 A 
ATOM      6  C5  UNL d   1       1.037   1.661  -1.753  0.00  0.00     0.039 A 
ENDROOT
BRANCH   4   7
ATOM      7  O   UNL d   1       3.475  -0.988  -1.250  0.00  0.00    -0.526 OA
ATOM      8  H5  UNL d   1       3.422  -1.769  -0.673  0.00  0.00     0.418 HD
ENDBRANCH   4   7
TORSDOF 1
ENDMDL
