MODEL 1
REMARK minimizedAffinity -1.53263986
REMARK minimizedRMSD -1
REMARK  1 active torsions:
REMARK  status: ('A' for Active; 'I' for Inactive)
REMARK    1  A    between atoms: C3_4  and  O_7 
ROOT
ATOM      1  C   UNL d   1       0.725  -1.159   0.731  0.00  0.00    -0.033 A 
ATOM      2  C1  UNL d   1       1.012  -0.850  -0.600  0.00  0.00     0.039 A 
ATOM      3  C2  UNL d   1       0.591   0.365  -1.143  0.00  0.00    -0.080 A 
ATOM      4  C3  UNL d   1      -0.113   1.263  -0.345  0.00  0.00     0.150 A 
ATOM      5  C4  UNL d   1      -0.400   0.963   0.983  0.00  0.00    -0.007 A 
ATOM      6  C5  UNL d   1       0.020  -0.252   1.522  0.00  0.00     0.039 A 
ENDROOT
BRANCH   4   7
ATOM      7  O   UNL d   1      -0.549   2.459  -0.832  0.00  0.00    -0.526 OA
ATOM      8  H5  UNL d   1      -0.304   2.517  -1.771  0.00  0.00     0.418 HD
ENDBRANCH   4   7
TORSDOF 1
ENDMDL
