MODEL 1
REMARK minimizedAffinity -3.12182546
REMARK minimizedRMSD -1
REMARK  1 active torsions:
REMARK  status: ('A' for Active; 'I' for Inactive)
REMARK    1  A    between atoms: C3_4  and  O_7 
ROOT
ATOM      1  C   UNL d   1      -0.933   0.737  -0.151  0.00  0.00    -0.033 A 
ATOM      2  C1  UNL d   1      -0.840  -0.539   0.408  0.00  0.00     0.039 A 
ATOM      3  C2  UNL d   1       0.220  -1.380   0.060  0.00  0.00    -0.080 A 
ATOM      4  C3  UNL d   1       1.178  -0.932  -0.845  0.00  0.00     0.150 A 
ATOM      5  C4  UNL d   1       1.093   0.340  -1.402  0.00  0.00    -0.007 A 
ATOM      6  C5  UNL d   1       0.034   1.177  -1.055  0.00  0.00     0.039 A 
ENDROOT
BRANCH   4   7
ATOM      7  O   UNL d   1       2.227  -1.718  -1.219  0.00  0.00    -0.526 OA
ATOM      8  H5  UNL d   1       2.140  -2.579  -0.776  0.00  0.00     0.418 HD
ENDBRANCH   4   7
TORSDOF 1
ENDMDL
