MODEL 1
REMARK minimizedAffinity -1.25508761
REMARK minimizedRMSD -1
REMARK  1 active torsions:
REMARK  status: ('A' for Active; 'I' for Inactive)
REMARK    1  A    between atoms: C3_4  and  O_7 
ROOT
ATOM      1  C   UNL d   1      -0.129  -1.076  -0.271  0.00  0.00    -0.033 A 
ATOM      2  C1  UNL d   1       0.195  -1.080   1.087  0.00  0.00     0.039 A 
ATOM      3  C2  UNL d   1      -0.442  -0.197   1.961  0.00  0.00    -0.080 A 
ATOM      4  C3  UNL d   1      -1.400   0.682   1.466  0.00  0.00     0.150 A 
ATOM      5  C4  UNL d   1      -1.731   0.689   0.115  0.00  0.00    -0.007 A 
ATOM      6  C5  UNL d   1      -1.093  -0.192  -0.757  0.00  0.00     0.039 A 
ENDROOT
BRANCH   4   7
ATOM      7  O   UNL d   1      -2.045   1.565   2.280  0.00  0.00    -0.526 OA
ATOM      8  H5  UNL d   1      -1.694   1.466   3.181  0.00  0.00     0.418 HD
ENDBRANCH   4   7
TORSDOF 1
ENDMDL
