MODEL 1
REMARK minimizedAffinity -3.63715744
REMARK minimizedRMSD -1
REMARK  1 active torsions:
REMARK  status: ('A' for Active; 'I' for Inactive)
REMARK    1  A    between atoms: C3_4  and  O_7 
ROOT
ATOM      1  C   UNL d   1      -1.056   0.521   1.373  0.00  0.00    -0.033 A 
ATOM      2  C1  UNL d   1       0.013   0.058   2.141  0.00  0.00     0.039 A 
ATOM      3  C2  UNL d   1       0.991  -0.754   1.563  0.00  0.00    -0.080 A 
ATOM      4  C3  UNL d   1       0.888  -1.094   0.217  0.00  0.00     0.150 A 
ATOM      5  C4  UNL d   1      -0.173  -0.633  -0.556  0.00  0.00    -0.007 A 
ATOM      6  C5  UNL d   1      -1.148   0.177   0.024  0.00  0.00     0.039 A 
ENDROOT
BRANCH   4   7
ATOM      7  O   UNL d   1       1.815  -1.888  -0.390  0.00  0.00    -0.526 OA
ATOM      8  H5  UNL d   1       2.473  -2.155   0.273  0.00  0.00     0.418 HD
ENDBRANCH   4   7
TORSDOF 1
ENDMDL
