MODEL 1
REMARK minimizedAffinity -3.31852913
REMARK minimizedRMSD -1
REMARK  1 active torsions:
REMARK  status: ('A' for Active; 'I' for Inactive)
REMARK    1  A    between atoms: C3_4  and  O_7 
ROOT
ATOM      1  C   UNL d   1       0.661  -1.672   0.315  0.00  0.00    -0.033 A 
ATOM      2  C1  UNL d   1      -0.462  -1.186  -0.356  0.00  0.00     0.039 A 
ATOM      3  C2  UNL d   1      -1.142  -0.069   0.134  0.00  0.00    -0.080 A 
ATOM      4  C3  UNL d   1      -0.688   0.553   1.294  0.00  0.00     0.150 A 
ATOM      5  C4  UNL d   1       0.433   0.077   1.965  0.00  0.00    -0.007 A 
ATOM      6  C5  UNL d   1       1.110  -1.039   1.475  0.00  0.00     0.039 A 
ENDROOT
BRANCH   4   7
ATOM      7  O   UNL d   1      -1.321   1.643   1.813  0.00  0.00    -0.526 OA
ATOM      8  H5  UNL d   1      -2.095   1.841   1.259  0.00  0.00     0.418 HD
ENDBRANCH   4   7
TORSDOF 1
ENDMDL
