MODEL 1
REMARK minimizedAffinity 0.117603682
REMARK minimizedRMSD -1
REMARK  1 active torsions:
REMARK  status: ('A' for Active; 'I' for Inactive)
REMARK    1  A    between atoms: C3_4  and  O_7 
ROOT
ATOM      1  C   UNL d   1      -0.661  -0.240   0.516  0.00  0.00    -0.033 A 
ATOM      2  C1  UNL d   1       0.167   0.632  -0.193  0.00  0.00     0.039 A 
ATOM      3  C2  UNL d   1       1.041   0.134  -1.161  0.00  0.00    -0.080 A 
ATOM      4  C3  UNL d   1       1.076  -1.235  -1.412  0.00  0.00     0.150 A 
ATOM      5  C4  UNL d   1       0.251  -2.109  -0.712  0.00  0.00    -0.007 A 
ATOM      6  C5  UNL d   1      -0.621  -1.610   0.256  0.00  0.00     0.039 A 
ENDROOT
BRANCH   4   7
ATOM      7  O   UNL d   1       1.916  -1.768  -2.344  0.00  0.00    -0.526 OA
ATOM      8  H5  UNL d   1       2.446  -1.049  -2.727  0.00  0.00     0.418 HD
ENDBRANCH   4   7
TORSDOF 1
ENDMDL
