MODEL 1
REMARK minimizedAffinity -5.34425879
REMARK minimizedRMSD -1
REMARK  1 active torsions:
REMARK  status: ('A' for Active; 'I' for Inactive)
REMARK    1  A    between atoms: C3_4  and  O_7 
ROOT
ATOM      1  C   UNL d   1      -0.212   0.037  -0.027  0.00  0.00    -0.033 A 
ATOM      2  C1  UNL d   1       0.677   1.034  -0.434  0.00  0.00     0.039 A 
ATOM      3  C2  UNL d   1       1.947   0.692  -0.901  0.00  0.00    -0.080 A 
ATOM      4  C3  UNL d   1       2.316  -0.650  -0.956  0.00  0.00     0.150 A 
ATOM      5  C4  UNL d   1       1.434  -1.648  -0.556  0.00  0.00    -0.007 A 
ATOM      6  C5  UNL d   1       0.167  -1.304  -0.089  0.00  0.00     0.039 A 
ENDROOT
BRANCH   4   7
ATOM      7  O   UNL d   1       3.547  -1.032  -1.400  0.00  0.00    -0.526 OA
ATOM      8  H5  UNL d   1       4.058  -0.234  -1.615  0.00  0.00     0.418 HD
ENDBRANCH   4   7
TORSDOF 1
ENDMDL
