MODEL 1
REMARK minimizedAffinity -3.53815365
REMARK minimizedRMSD -1
REMARK  1 active torsions:
REMARK  status: ('A' for Active; 'I' for Inactive)
REMARK    1  A    between atoms: C3_4  and  O_7 
ROOT
ATOM      1  C   UNL d   1       0.658  -1.522  -0.110  0.00  0.00    -0.033 A 
ATOM      2  C1  UNL d   1       1.582  -1.483  -1.156  0.00  0.00     0.039 A 
ATOM      3  C2  UNL d   1       1.615  -0.387  -2.020  0.00  0.00    -0.080 A 
ATOM      4  C3  UNL d   1       0.722   0.664  -1.826  0.00  0.00     0.150 A 
ATOM      5  C4  UNL d   1      -0.198   0.634  -0.783  0.00  0.00    -0.007 A 
ATOM      6  C5  UNL d   1      -0.231  -0.462   0.078  0.00  0.00     0.039 A 
ENDROOT
BRANCH   4   7
ATOM      7  O   UNL d   1       0.714   1.753  -2.646  0.00  0.00    -0.526 OA
ATOM      8  H5  UNL d   1       1.384   1.622  -3.338  0.00  0.00     0.418 HD
ENDBRANCH   4   7
TORSDOF 1
ENDMDL
