MODEL 1
REMARK minimizedAffinity -5.01836729
REMARK minimizedRMSD -1
REMARK  1 active torsions:
REMARK  status: ('A' for Active; 'I' for Inactive)
REMARK    1  A    between atoms: C3_4  and  O_7 
ROOT
ATOM      1  C   UNL d   1       0.868   1.787  -2.051  0.00  0.00    -0.033 A 
ATOM      2  C1  UNL d   1       1.919   1.349  -2.858  0.00  0.00     0.039 A 
ATOM      3  C2  UNL d   1       2.788   0.356  -2.398  0.00  0.00    -0.080 A 
ATOM      4  C3  UNL d   1       2.593  -0.189  -1.133  0.00  0.00     0.150 A 
ATOM      5  C4  UNL d   1       1.545   0.240  -0.325  0.00  0.00    -0.007 A 
ATOM      6  C5  UNL d   1       0.680   1.232  -0.785  0.00  0.00     0.039 A 
ENDROOT
BRANCH   4   7
ATOM      7  O   UNL d   1       3.417  -1.157  -0.639  0.00  0.00    -0.526 OA
ATOM      8  H5  UNL d   1       4.112  -1.333  -1.295  0.00  0.00     0.418 HD
ENDBRANCH   4   7
TORSDOF 1
ENDMDL
