MODEL 1
REMARK minimizedAffinity -2.94470835
REMARK minimizedRMSD -1
REMARK  1 active torsions:
REMARK  status: ('A' for Active; 'I' for Inactive)
REMARK    1  A    between atoms: C3_4  and  O_7 
ROOT
ATOM      1  C   UNL d   1       0.481  -1.179  -0.424  0.00  0.00    -0.033 A 
ATOM      2  C1  UNL d   1      -0.241  -0.074  -0.878  0.00  0.00     0.039 A 
ATOM      3  C2  UNL d   1      -0.977   0.698   0.023  0.00  0.00    -0.080 A 
ATOM      4  C3  UNL d   1      -0.982   0.356   1.372  0.00  0.00     0.150 A 
ATOM      5  C4  UNL d   1      -0.261  -0.742   1.831  0.00  0.00    -0.007 A 
ATOM      6  C5  UNL d   1       0.472  -1.512   0.930  0.00  0.00     0.039 A 
ENDROOT
BRANCH   4   7
ATOM      7  O   UNL d   1      -1.689   1.077   2.288  0.00  0.00    -0.526 OA
ATOM      8  H5  UNL d   1      -2.160   1.788   1.822  0.00  0.00     0.418 HD
ENDBRANCH   4   7
TORSDOF 1
ENDMDL
