MODEL 1
REMARK minimizedAffinity -5.0006938
REMARK minimizedRMSD -1
REMARK  1 active torsions:
REMARK  status: ('A' for Active; 'I' for Inactive)
REMARK    1  A    between atoms: C3_4  and  O_7 
ROOT
ATOM      1  C   UNL d   1       1.941   0.038  -2.622  0.00  0.00    -0.033 A 
ATOM      2  C1  UNL d   1       1.085   1.142  -2.619  0.00  0.00     0.039 A 
ATOM      3  C2  UNL d   1       0.061   1.230  -1.675  0.00  0.00    -0.080 A 
ATOM      4  C3  UNL d   1      -0.097   0.211  -0.740  0.00  0.00     0.150 A 
ATOM      5  C4  UNL d   1       0.754  -0.890  -0.735  0.00  0.00    -0.007 A 
ATOM      6  C5  UNL d   1       1.776  -0.977  -1.679  0.00  0.00     0.039 A 
ENDROOT
BRANCH   4   7
ATOM      7  O   UNL d   1      -1.085   0.251   0.198  0.00  0.00    -0.526 OA
ATOM      8  H5  UNL d   1      -1.613   1.054   0.056  0.00  0.00     0.418 HD
ENDBRANCH   4   7
TORSDOF 1
ENDMDL
