MODEL 1
REMARK minimizedAffinity 1.47747028
REMARK minimizedRMSD -1
REMARK  1 active torsions:
REMARK  status: ('A' for Active; 'I' for Inactive)
REMARK    1  A    between atoms: C3_4  and  O_7 
ROOT
ATOM      1  C   UNL d   1      -5.861  -0.752   1.583  0.00  0.00    -0.033 A 
ATOM      2  C1  UNL d   1      -4.594  -1.142   1.146  0.00  0.00     0.039 A 
ATOM      3  C2  UNL d   1      -3.462  -0.800   1.889  0.00  0.00    -0.080 A 
ATOM      4  C3  UNL d   1      -3.611  -0.070   3.065  0.00  0.00     0.150 A 
ATOM      5  C4  UNL d   1      -4.871   0.318   3.508  0.00  0.00    -0.007 A 
ATOM      6  C5  UNL d   1      -6.000  -0.023   2.764  0.00  0.00     0.039 A 
ENDROOT
BRANCH   4   7
ATOM      7  O   UNL d   1      -2.535   0.290   3.821  0.00  0.00    -0.526 OA
ATOM      8  H5  UNL d   1      -1.729  -0.022   3.377  0.00  0.00     0.418 HD
ENDBRANCH   4   7
TORSDOF 1
ENDMDL
