MODEL 1
REMARK minimizedAffinity -3.77629948
REMARK minimizedRMSD -1
REMARK  1 active torsions:
REMARK  status: ('A' for Active; 'I' for Inactive)
REMARK    1  A    between atoms: C3_4  and  O_7 
ROOT
ATOM      1  C   UNL d   1       0.502  -0.537  -0.938  0.00  0.00    -0.033 A 
ATOM      2  C1  UNL d   1       0.980  -0.859   0.333  0.00  0.00     0.039 A 
ATOM      3  C2  UNL d   1       0.473  -0.204   1.458  0.00  0.00    -0.080 A 
ATOM      4  C3  UNL d   1      -0.510   0.768   1.297  0.00  0.00     0.150 A 
ATOM      5  C4  UNL d   1      -0.994   1.091   0.033  0.00  0.00    -0.007 A 
ATOM      6  C5  UNL d   1      -0.485   0.437  -1.089  0.00  0.00     0.039 A 
ENDROOT
BRANCH   4   7
ATOM      7  O   UNL d   1      -1.032   1.437   2.364  0.00  0.00    -0.526 OA
ATOM      8  H5  UNL d   1      -0.583   1.130   3.169  0.00  0.00     0.418 HD
ENDBRANCH   4   7
TORSDOF 1
ENDMDL
