MODEL 1
REMARK minimizedAffinity -2.47691846
REMARK minimizedRMSD -1
REMARK  1 active torsions:
REMARK  status: ('A' for Active; 'I' for Inactive)
REMARK    1  A    between atoms: C3_4  and  O_7 
ROOT
ATOM      1  C   UNL d   1       0.742  -1.044  -0.378  0.00  0.00    -0.033 A 
ATOM      2  C1  UNL d   1       1.059  -1.099   0.980  0.00  0.00     0.039 A 
ATOM      3  C2  UNL d   1       0.490  -0.185   1.869  0.00  0.00    -0.080 A 
ATOM      4  C3  UNL d   1      -0.393   0.777   1.388  0.00  0.00     0.150 A 
ATOM      5  C4  UNL d   1      -0.717   0.835   0.036  0.00  0.00    -0.007 A 
ATOM      6  C5  UNL d   1      -0.147  -0.078  -0.850  0.00  0.00     0.039 A 
ENDROOT
BRANCH   4   7
ATOM      7  O   UNL d   1      -0.970   1.694   2.217  0.00  0.00    -0.526 OA
ATOM      8  H5  UNL d   1      -0.632   1.551   3.116  0.00  0.00     0.418 HD
ENDBRANCH   4   7
TORSDOF 1
ENDMDL
