MODEL 1
REMARK minimizedAffinity -0.901461899
REMARK minimizedRMSD -1
REMARK  0 active torsions:
REMARK  status: ('A' for Active; 'I' for Inactive)
ROOT
ATOM      1  N1  IND d   1      -0.541  -1.616  -1.238  0.00  0.00    -0.196 N 
ATOM      2  C2  IND d   1      -1.881  -1.867  -1.144  0.00  0.00     0.054 A 
ATOM      3  C3  IND d   1      -2.421  -1.164  -0.123  0.00  0.00    -0.031 A 
ATOM      4  C4  IND d   1      -1.311   0.536   1.460  0.00  0.00     0.051 A 
ATOM      5  C5  IND d   1      -0.096   1.071   1.786  0.00  0.00    -0.031 A 
ATOM      6  C6  IND d   1       1.055   0.733   1.105  0.00  0.00     0.015 A 
ATOM      7  C7  IND d   1       1.033  -0.148   0.061  0.00  0.00    -0.016 A 
ATOM      8  C8  IND d   1      -0.198  -0.699  -0.268  0.00  0.00    -0.047 A 
ATOM      9  C9  IND d   1      -1.363  -0.392   0.446  0.00  0.00    -0.096 A 
ATOM     10  HN1 IND d   1      -0.003  -1.971  -1.806  0.00  0.00     0.298 HD
ENDROOT
TORSDOF 0
ENDMDL
