MODEL 1
REMARK minimizedAffinity -2.77129436
REMARK minimizedRMSD -1
REMARK  0 active torsions:
REMARK  status: ('A' for Active; 'I' for Inactive)
ROOT
ATOM      1  N1  IND d   1       0.912  -1.950  -1.676  0.00  0.00    -0.196 N 
ATOM      2  C2  IND d   1       0.004  -2.925  -1.983  0.00  0.00     0.054 A 
ATOM      3  C3  IND d   1      -0.676  -2.598  -3.105  0.00  0.00    -0.031 A 
ATOM      4  C4  IND d   1      -0.390  -0.563  -4.655  0.00  0.00     0.051 A 
ATOM      5  C5  IND d   1       0.288   0.618  -4.769  0.00  0.00    -0.031 A 
ATOM      6  C6  IND d   1       1.231   1.010  -3.840  0.00  0.00     0.015 A 
ATOM      7  C7  IND d   1       1.539   0.226  -2.764  0.00  0.00    -0.016 A 
ATOM      8  C8  IND d   1       0.847  -0.970  -2.642  0.00  0.00    -0.047 A 
ATOM      9  C9  IND d   1      -0.141  -1.353  -3.558  0.00  0.00    -0.096 A 
ATOM     10  HN1 IND d   1       1.436  -1.950  -0.994  0.00  0.00     0.298 HD
ENDROOT
TORSDOF 0
ENDMDL
