MODEL 1
REMARK minimizedAffinity -3.0695076
REMARK minimizedRMSD -1
REMARK  0 active torsions:
REMARK  status: ('A' for Active; 'I' for Inactive)
ROOT
ATOM      1  N1  IND d   1       0.142  -0.472  -0.841  0.00  0.00    -0.196 N 
ATOM      2  C2  IND d   1       1.431  -0.911  -0.958  0.00  0.00     0.054 A 
ATOM      3  C3  IND d   1       2.194  -0.398   0.033  0.00  0.00    -0.031 A 
ATOM      4  C4  IND d   1       1.514   1.102   2.011  0.00  0.00     0.051 A 
ATOM      5  C5  IND d   1       0.453   1.795   2.523  0.00  0.00    -0.031 A 
ATOM      6  C6  IND d   1      -0.792   1.765   1.928  0.00  0.00     0.015 A 
ATOM      7  C7  IND d   1      -1.026   1.028   0.802  0.00  0.00    -0.016 A 
ATOM      8  C8  IND d   1       0.051   0.329   0.276  0.00  0.00    -0.047 A 
ATOM      9  C9  IND d   1       1.327   0.390   0.850  0.00  0.00    -0.096 A 
ATOM     10  HN1 IND d   1      -0.503  -0.664  -1.376  0.00  0.00     0.298 HD
ENDROOT
TORSDOF 0
ENDMDL
