MODEL 1
REMARK minimizedAffinity 3.67959833
REMARK minimizedRMSD -1
REMARK  0 active torsions:
REMARK  status: ('A' for Active; 'I' for Inactive)
ROOT
ATOM      1  N1  IND d   1      -1.160  -0.266  -4.312  0.00  0.00    -0.196 N 
ATOM      2  C2  IND d   1      -1.029  -0.874  -5.529  0.00  0.00     0.054 A 
ATOM      3  C3  IND d   1       0.230  -0.722  -5.998  0.00  0.00    -0.031 A 
ATOM      4  C4  IND d   1       2.264   0.400  -4.888  0.00  0.00     0.051 A 
ATOM      5  C5  IND d   1       2.626   1.129  -3.790  0.00  0.00    -0.031 A 
ATOM      6  C6  IND d   1       1.727   1.434  -2.788  0.00  0.00     0.015 A 
ATOM      7  C7  IND d   1       0.429   1.009  -2.842  0.00  0.00    -0.016 A 
ATOM      8  C8  IND d   1       0.056   0.275  -3.959  0.00  0.00    -0.047 A 
ATOM      9  C9  IND d   1       0.953  -0.001  -4.999  0.00  0.00    -0.096 A 
ATOM     10  HN1 IND d   1      -1.881  -0.228  -3.846  0.00  0.00     0.298 HD
ENDROOT
TORSDOF 0
ENDMDL
