MODEL 1
REMARK minimizedAffinity 0.308563501
REMARK minimizedRMSD -1
REMARK  0 active torsions:
REMARK  status: ('A' for Active; 'I' for Inactive)
ROOT
ATOM      1  N1  IND d   1      -2.374  -1.077  -0.395  0.00  0.00    -0.196 N 
ATOM      2  C2  IND d   1      -2.077  -2.036  -1.322  0.00  0.00     0.054 A 
ATOM      3  C3  IND d   1      -0.740  -2.230  -1.387  0.00  0.00    -0.031 A 
ATOM      4  C4  IND d   1       1.138  -1.156   0.009  0.00  0.00     0.051 A 
ATOM      5  C5  IND d   1       1.362  -0.197   0.956  0.00  0.00    -0.031 A 
ATOM      6  C6  IND d   1       0.331   0.532   1.514  0.00  0.00     0.015 A 
ATOM      7  C7  IND d   1      -0.969   0.318   1.153  0.00  0.00    -0.016 A 
ATOM      8  C8  IND d   1      -1.200  -0.650   0.187  0.00  0.00    -0.047 A 
ATOM      9  C9  IND d   1      -0.154  -1.363  -0.414  0.00  0.00    -0.096 A 
ATOM     10  HN1 IND d   1      -3.161  -0.788  -0.206  0.00  0.00     0.298 HD
ENDROOT
TORSDOF 0
ENDMDL
