MODEL 1
REMARK minimizedAffinity -5.21462345
REMARK minimizedRMSD -1
REMARK  0 active torsions:
REMARK  status: ('A' for Active; 'I' for Inactive)
ROOT
ATOM      1  N1  IND d   1      -1.124   1.188   2.270  0.00  0.00    -0.196 N 
ATOM      2  C2  IND d   1       0.174   1.620   2.292  0.00  0.00     0.054 A 
ATOM      3  C3  IND d   1       0.932   0.791   3.044  0.00  0.00    -0.031 A 
ATOM      4  C4  IND d   1       0.273  -1.388   4.247  0.00  0.00     0.051 A 
ATOM      5  C5  IND d   1      -0.808  -2.169   4.545  0.00  0.00    -0.031 A 
ATOM      6  C6  IND d   1      -2.074  -1.867   4.088  0.00  0.00     0.015 A 
ATOM      7  C7  IND d   1      -2.306  -0.773   3.304  0.00  0.00    -0.016 A 
ATOM      8  C8  IND d   1      -1.212   0.027   3.005  0.00  0.00    -0.047 A 
ATOM      9  C9  IND d   1       0.068  -0.251   3.501  0.00  0.00    -0.096 A 
ATOM     10  HN1 IND d   1      -1.775   1.578   1.865  0.00  0.00     0.298 HD
ENDROOT
TORSDOF 0
ENDMDL
