MODEL 1
REMARK minimizedAffinity -0.433748841
REMARK minimizedRMSD -1
REMARK  0 active torsions:
REMARK  status: ('A' for Active; 'I' for Inactive)
ROOT
ATOM      1  N1  IND d   1      -0.581  -1.033   0.822  0.00  0.00    -0.196 N 
ATOM      2  C2  IND d   1       0.497  -0.214   1.012  0.00  0.00     0.054 A 
ATOM      3  C3  IND d   1       1.172  -0.049  -0.148  0.00  0.00    -0.031 A 
ATOM      4  C4  IND d   1       0.629  -0.947  -2.499  0.00  0.00     0.051 A 
ATOM      5  C5  IND d   1      -0.235  -1.771  -3.164  0.00  0.00    -0.031 A 
ATOM      6  C6  IND d   1      -1.282  -2.401  -2.522  0.00  0.00     0.015 A 
ATOM      7  C7  IND d   1      -1.511  -2.222  -1.187  0.00  0.00    -0.016 A 
ATOM      8  C8  IND d   1      -0.631  -1.391  -0.507  0.00  0.00    -0.047 A 
ATOM      9  C9  IND d   1       0.458  -0.783  -1.144  0.00  0.00    -0.096 A 
ATOM     10  HN1 IND d   1      -1.135  -1.282   1.431  0.00  0.00     0.298 HD
ENDROOT
TORSDOF 0
ENDMDL
