MODEL 1
REMARK minimizedAffinity -5.90469217
REMARK minimizedRMSD -1
REMARK  1 active torsions:
REMARK  status: ('A' for Active; 'I' for Inactive)
REMARK    1  A    between atoms: C1_2  and  C2_3 
ROOT
ATOM      1  C2  UNL d   1       0.096  -0.581  -3.430  0.00  0.00    -0.073 A 
ATOM      2  C3  UNL d   1       0.103   0.684  -4.028  0.00  0.00    -0.002 A 
ATOM      3  C4  UNL d   1      -0.697   0.940  -5.143  0.00  0.00     0.004 A 
ATOM      4  C5  UNL d   1      -1.514  -0.062  -5.666  0.00  0.00    -0.004 A 
ATOM      5  C6  UNL d   1      -1.543  -1.329  -5.074  0.00  0.00    -0.075 A 
ATOM      6  C7  UNL d   1      -2.416  -2.418  -5.626  0.00  0.00     0.076 C 
ATOM      7  C8  UNL d   1      -0.736  -1.579  -3.957  0.00  0.00     0.001 A 
ENDROOT
BRANCH   1   8
ATOM      8  C1  UNL d   1       0.953  -0.860  -2.222  0.00  0.00     0.053 C 
ATOM      9  C   UNL d   1       0.118  -1.095  -0.973  0.00  0.00     0.018 C 
ENDBRANCH   1   8
TORSDOF 1
ENDMDL
