MODEL 1
REMARK minimizedAffinity -5.93157291
REMARK minimizedRMSD -1
REMARK  1 active torsions:
REMARK  status: ('A' for Active; 'I' for Inactive)
REMARK    1  A    between atoms: C1_2  and  C2_3 
ROOT
ATOM      1  C2  UNL d   1      -0.001  -0.045  -1.006  0.00  0.00    -0.073 A 
ATOM      2  C3  UNL d   1       1.164   0.541  -1.515  0.00  0.00    -0.002 A 
ATOM      3  C4  UNL d   1       1.414   0.536  -2.888  0.00  0.00     0.004 A 
ATOM      4  C5  UNL d   1       0.499  -0.047  -3.766  0.00  0.00    -0.004 A 
ATOM      5  C6  UNL d   1      -0.676  -0.626  -3.278  0.00  0.00    -0.075 A 
ATOM      6  C7  UNL d   1      -1.669  -1.259  -4.208  0.00  0.00     0.076 C 
ATOM      7  C8  UNL d   1      -0.918  -0.620  -1.897  0.00  0.00     0.001 A 
ENDROOT
BRANCH   1   8
ATOM      8  C1  UNL d   1      -0.278  -0.037   0.475  0.00  0.00     0.053 C 
ATOM      9  C   UNL d   1      -1.614   0.612   0.801  0.00  0.00     0.018 C 
ENDBRANCH   1   8
TORSDOF 1
ENDMDL
