MODEL 1
REMARK minimizedAffinity 2.98108339
REMARK minimizedRMSD -1
REMARK  1 active torsions:
REMARK  status: ('A' for Active; 'I' for Inactive)
REMARK    1  A    between atoms: C1_2  and  C2_3 
ROOT
ATOM      1  C2  UNL d   1      -1.229   0.236   0.836  0.00  0.00    -0.073 A 
ATOM      2  C3  UNL d   1      -1.049   0.964  -0.346  0.00  0.00    -0.002 A 
ATOM      3  C4  UNL d   1       0.229   1.144  -0.875  0.00  0.00     0.004 A 
ATOM      4  C5  UNL d   1       1.339   0.593  -0.234  0.00  0.00    -0.004 A 
ATOM      5  C6  UNL d   1       1.178  -0.148   0.942  0.00  0.00    -0.075 A 
ATOM      6  C7  UNL d   1       2.361  -0.745   1.645  0.00  0.00     0.076 C 
ATOM      7  C8  UNL d   1      -0.109  -0.322   1.469  0.00  0.00     0.001 A 
ENDROOT
BRANCH   1   8
ATOM      8  C1  UNL d   1      -2.609   0.034   1.408  0.00  0.00     0.053 C 
ATOM      9  C   UNL d   1      -2.584  -0.814   2.669  0.00  0.00     0.018 C 
ENDBRANCH   1   8
TORSDOF 1
ENDMDL
