MODEL 1
REMARK minimizedAffinity -3.94717216
REMARK minimizedRMSD -1
REMARK  1 active torsions:
REMARK  status: ('A' for Active; 'I' for Inactive)
REMARK    1  A    between atoms: C1_2  and  C2_3 
ROOT
ATOM      1  C2  UNL d   1      -0.180   0.010  -4.323  0.00  0.00    -0.073 A 
ATOM      2  C3  UNL d   1       0.925   0.764  -4.736  0.00  0.00    -0.002 A 
ATOM      3  C4  UNL d   1       2.073   0.823  -3.945  0.00  0.00     0.004 A 
ATOM      4  C5  UNL d   1       2.131   0.124  -2.739  0.00  0.00    -0.004 A 
ATOM      5  C6  UNL d   1       1.042  -0.645  -2.316  0.00  0.00    -0.075 A 
ATOM      6  C7  UNL d   1       1.089  -1.401  -1.020  0.00  0.00     0.076 C 
ATOM      7  C8  UNL d   1      -0.108  -0.697  -3.114  0.00  0.00     0.001 A 
ENDROOT
BRANCH   1   8
ATOM      8  C1  UNL d   1      -1.419  -0.062  -5.177  0.00  0.00     0.053 C 
ATOM      9  C   UNL d   1      -2.090  -1.424  -5.095  0.00  0.00     0.018 C 
ENDBRANCH   1   8
TORSDOF 1
ENDMDL
