MODEL 1
REMARK minimizedAffinity -5.43833113
REMARK minimizedRMSD -1
REMARK  1 active torsions:
REMARK  status: ('A' for Active; 'I' for Inactive)
REMARK    1  A    between atoms: C1_2  and  C2_3 
ROOT
ATOM      1  C2  UNL d   1       0.682  -0.276  -1.976  0.00  0.00    -0.073 A 
ATOM      2  C3  UNL d   1       1.758   0.548  -2.326  0.00  0.00    -0.002 A 
ATOM      3  C4  UNL d   1       1.785   1.182  -3.568  0.00  0.00     0.004 A 
ATOM      4  C5  UNL d   1       0.736   1.005  -4.470  0.00  0.00    -0.004 A 
ATOM      5  C6  UNL d   1      -0.353   0.195  -4.135  0.00  0.00    -0.075 A 
ATOM      6  C7  UNL d   1      -1.489  -0.007  -5.094  0.00  0.00     0.076 C 
ATOM      7  C8  UNL d   1      -0.373  -0.441  -2.886  0.00  0.00     0.001 A 
ENDROOT
BRANCH   1   8
ATOM      8  C1  UNL d   1       0.645  -0.958  -0.633  0.00  0.00     0.053 C 
ATOM      9  C   UNL d   1       0.351   0.019   0.494  0.00  0.00     0.018 C 
ENDBRANCH   1   8
TORSDOF 1
ENDMDL
