MODEL 1
REMARK minimizedAffinity -4.12623835
REMARK minimizedRMSD -1
REMARK  0 active torsions:
REMARK  status: ('A' for Active; 'I' for Inactive)
ROOT
ATOM      1  C   UNL d   1       2.227  -0.949   2.787  0.00  0.00     0.077 C 
ATOM      2  C1  UNL d   1       0.960  -0.715   2.020  0.00  0.00    -0.074 A 
ATOM      3  C2  UNL d   1      -0.284  -0.745   2.660  0.00  0.00    -0.005 A 
ATOM      4  C3  UNL d   1      -1.453  -0.516   1.935  0.00  0.00     0.006 A 
ATOM      5  C4  UNL d   1      -1.391  -0.256   0.565  0.00  0.00    -0.005 A 
ATOM      6  C5  UNL d   1      -0.157  -0.221  -0.091  0.00  0.00    -0.074 A 
ATOM      7  C6  UNL d   1      -0.072   0.068  -1.561  0.00  0.00     0.077 C 
ATOM      8  C7  UNL d   1       1.014  -0.445   0.646  0.00  0.00    -0.001 A 
ENDROOT
TORSDOF 0
ENDMDL
