MODEL 1
REMARK minimizedAffinity -3.74698997
REMARK minimizedRMSD -1
REMARK  0 active torsions:
REMARK  status: ('A' for Active; 'I' for Inactive)
ROOT
ATOM      1  C   UNL d   1      -2.478   3.220  -2.033  0.00  0.00     0.077 C 
ATOM      2  C1  UNL d   1      -1.673   2.023  -1.624  0.00  0.00    -0.074 A 
ATOM      3  C2  UNL d   1      -0.734   1.458  -2.492  0.00  0.00    -0.005 A 
ATOM      4  C3  UNL d   1       0.015   0.350  -2.094  0.00  0.00     0.006 A 
ATOM      5  C4  UNL d   1      -0.168  -0.202  -0.826  0.00  0.00    -0.005 A 
ATOM      6  C5  UNL d   1      -1.101   0.350   0.056  0.00  0.00    -0.074 A 
ATOM      7  C6  UNL d   1      -1.303  -0.225   1.427  0.00  0.00     0.077 C 
ATOM      8  C7  UNL d   1      -1.845   1.467  -0.348  0.00  0.00    -0.001 A 
ENDROOT
TORSDOF 0
ENDMDL
