MODEL 1
REMARK minimizedAffinity -4.32238436
REMARK minimizedRMSD -1
REMARK  0 active torsions:
REMARK  status: ('A' for Active; 'I' for Inactive)
ROOT
ATOM      1  C   UNL d   1      -0.359   0.241   1.769  0.00  0.00     0.077 C 
ATOM      2  C1  UNL d   1      -0.459   0.705   0.347  0.00  0.00    -0.074 A 
ATOM      3  C2  UNL d   1      -0.699  -0.201  -0.690  0.00  0.00    -0.005 A 
ATOM      4  C3  UNL d   1      -0.799   0.247  -2.007  0.00  0.00     0.006 A 
ATOM      5  C4  UNL d   1      -0.660   1.604  -2.300  0.00  0.00    -0.005 A 
ATOM      6  C5  UNL d   1      -0.420   2.526  -1.276  0.00  0.00    -0.074 A 
ATOM      7  C6  UNL d   1      -0.278   3.989  -1.572  0.00  0.00     0.077 C 
ATOM      8  C7  UNL d   1      -0.328   2.068   0.046  0.00  0.00    -0.001 A 
ENDROOT
TORSDOF 0
ENDMDL
