MODEL 1
REMARK minimizedAffinity -3.00083685
REMARK minimizedRMSD -1
REMARK  0 active torsions:
REMARK  status: ('A' for Active; 'I' for Inactive)
ROOT
ATOM      1  C   UNL d   1      -1.188   1.513  -2.116  0.00  0.00     0.077 C 
ATOM      2  C1  UNL d   1      -0.378   0.562  -1.285  0.00  0.00    -0.074 A 
ATOM      3  C2  UNL d   1       0.644  -0.202  -1.858  0.00  0.00    -0.005 A 
ATOM      4  C3  UNL d   1       1.395  -1.075  -1.071  0.00  0.00     0.006 A 
ATOM      5  C4  UNL d   1       1.133  -1.192   0.295  0.00  0.00    -0.005 A 
ATOM      6  C5  UNL d   1       0.116  -0.435   0.885  0.00  0.00    -0.074 A 
ATOM      7  C6  UNL d   1      -0.172  -0.541   2.353  0.00  0.00     0.077 C 
ATOM      8  C7  UNL d   1      -0.630   0.445   0.089  0.00  0.00    -0.001 A 
ENDROOT
TORSDOF 0
ENDMDL
