MODEL 1
REMARK minimizedAffinity -0.347955525
REMARK minimizedRMSD -1
REMARK  0 active torsions:
REMARK  status: ('A' for Active; 'I' for Inactive)
ROOT
ATOM      1  C   UNL d   1      -1.162   3.369  -2.309  0.00  0.00     0.077 C 
ATOM      2  C1  UNL d   1      -0.519   2.253  -1.540  0.00  0.00    -0.074 A 
ATOM      3  C2  UNL d   1       0.854   2.008  -1.642  0.00  0.00    -0.005 A 
ATOM      4  C3  UNL d   1       1.439   0.972  -0.914  0.00  0.00     0.006 A 
ATOM      5  C4  UNL d   1       0.659   0.172  -0.078  0.00  0.00    -0.005 A 
ATOM      6  C5  UNL d   1      -0.716   0.403   0.037  0.00  0.00    -0.074 A 
ATOM      7  C6  UNL d   1      -1.567  -0.441   0.938  0.00  0.00     0.077 C 
ATOM      8  C7  UNL d   1      -1.295   1.450  -0.693  0.00  0.00    -0.001 A 
ENDROOT
TORSDOF 0
ENDMDL
