MODEL 1
REMARK minimizedAffinity -2.93758249
REMARK minimizedRMSD -1
REMARK  0 active torsions:
REMARK  status: ('A' for Active; 'I' for Inactive)
ROOT
ATOM      1  C   UNL d   1       1.442  -1.223  -1.751  0.00  0.00     0.077 C 
ATOM      2  C1  UNL d   1       0.841  -0.867  -0.424  0.00  0.00    -0.074 A 
ATOM      3  C2  UNL d   1      -0.436  -0.303  -0.342  0.00  0.00    -0.005 A 
ATOM      4  C3  UNL d   1      -0.986   0.014   0.900  0.00  0.00     0.006 A 
ATOM      5  C4  UNL d   1      -0.266  -0.229   2.070  0.00  0.00    -0.005 A 
ATOM      6  C5  UNL d   1       1.012  -0.793   2.008  0.00  0.00    -0.074 A 
ATOM      7  C6  UNL d   1       1.795  -1.070   3.256  0.00  0.00     0.077 C 
ATOM      8  C7  UNL d   1       1.555  -1.116   0.757  0.00  0.00    -0.001 A 
ENDROOT
TORSDOF 0
ENDMDL
