MODEL 1
REMARK minimizedAffinity -3.19243145
REMARK minimizedRMSD -1
REMARK  0 active torsions:
REMARK  status: ('A' for Active; 'I' for Inactive)
ROOT
ATOM      1  C   UNL d   1       2.040  -0.989   3.375  0.00  0.00     0.077 C 
ATOM      2  C1  UNL d   1       0.949  -0.650   2.403  0.00  0.00    -0.074 A 
ATOM      3  C2  UNL d   1      -0.347  -0.367   2.847  0.00  0.00    -0.005 A 
ATOM      4  C3  UNL d   1      -1.349  -0.044   1.932  0.00  0.00     0.006 A 
ATOM      5  C4  UNL d   1      -1.066  -0.000   0.566  0.00  0.00    -0.005 A 
ATOM      6  C5  UNL d   1       0.224  -0.279   0.104  0.00  0.00    -0.074 A 
ATOM      7  C6  UNL d   1       0.548  -0.228  -1.360  0.00  0.00     0.077 C 
ATOM      8  C7  UNL d   1       1.227  -0.596   1.030  0.00  0.00    -0.001 A 
ENDROOT
TORSDOF 0
ENDMDL
