MODEL 1
REMARK minimizedAffinity 0.103418916
REMARK minimizedRMSD -1
REMARK  0 active torsions:
REMARK  status: ('A' for Active; 'I' for Inactive)
ROOT
ATOM      1  C   UNL d   1       2.264  -0.739   3.143  0.00  0.00     0.077 C 
ATOM      2  C1  UNL d   1       1.025  -0.773   2.300  0.00  0.00    -0.074 A 
ATOM      3  C2  UNL d   1      -0.242  -0.648   2.879  0.00  0.00    -0.005 A 
ATOM      4  C3  UNL d   1      -1.386  -0.672   2.080  0.00  0.00     0.006 A 
ATOM      5  C4  UNL d   1      -1.274  -0.821   0.697  0.00  0.00    -0.005 A 
ATOM      6  C5  UNL d   1      -0.016  -0.947   0.101  0.00  0.00    -0.074 A 
ATOM      7  C6  UNL d   1       0.122  -1.098  -1.385  0.00  0.00     0.077 C 
ATOM      8  C7  UNL d   1       1.129  -0.915   0.909  0.00  0.00    -0.001 A 
ENDROOT
TORSDOF 0
ENDMDL
