MODEL 1
REMARK minimizedAffinity 5.13685179
REMARK minimizedRMSD -1
REMARK  0 active torsions:
REMARK  status: ('A' for Active; 'I' for Inactive)
ROOT
ATOM      1  C1  DEN d   1      -0.619  -0.772   0.577  0.00  0.00     0.130 A 
ATOM      2  C2  DEN d   1       0.023  -2.056   0.847  0.00  0.00    -0.031 A 
ATOM      3  C3  DEN d   1      -0.371  -2.997  -0.221  0.00  0.00     0.027 A 
ATOM      4  C4  DEN d   1      -1.901  -2.591  -2.257  0.00  0.00     0.027 A 
ATOM      5  C5  DEN d   1      -2.688  -1.664  -2.904  0.00  0.00    -0.003 A 
ATOM      6  C6  DEN d   1      -2.866  -0.394  -2.421  0.00  0.00     0.001 A 
ATOM      7  C7  DEN d   1      -2.212  -0.004  -1.282  0.00  0.00     0.017 A 
ATOM      8  C8  DEN d   1      -1.423  -0.936  -0.621  0.00  0.00    -0.094 A 
ATOM      9  C9  DEN d   1      -1.246  -2.210  -1.131  0.00  0.00    -0.072 A 
ENDROOT
TORSDOF 0
ENDMDL
