MODEL 1
REMARK minimizedAffinity 0.868551731
REMARK minimizedRMSD -1
REMARK  0 active torsions:
REMARK  status: ('A' for Active; 'I' for Inactive)
ROOT
ATOM      1  C1  DEN d   1       2.931   1.820   1.342  0.00  0.00     0.130 A 
ATOM      2  C2  DEN d   1       2.458   2.537   0.161  0.00  0.00    -0.031 A 
ATOM      3  C3  DEN d   1       1.290   1.809  -0.377  0.00  0.00     0.027 A 
ATOM      4  C4  DEN d   1       0.173  -0.343   0.503  0.00  0.00     0.027 A 
ATOM      5  C5  DEN d   1       0.228  -1.320   1.471  0.00  0.00    -0.003 A 
ATOM      6  C6  DEN d   1       1.199  -1.339   2.437  0.00  0.00     0.001 A 
ATOM      7  C7  DEN d   1       2.130  -0.335   2.482  0.00  0.00     0.017 A 
ATOM      8  C8  DEN d   1       2.086   0.650   1.504  0.00  0.00    -0.094 A 
ATOM      9  C9  DEN d   1       1.089   0.658   0.544  0.00  0.00    -0.072 A 
ENDROOT
TORSDOF 0
ENDMDL
