MODEL 1
REMARK minimizedAffinity 0.0869554579
REMARK minimizedRMSD -1
REMARK  0 active torsions:
REMARK  status: ('A' for Active; 'I' for Inactive)
ROOT
ATOM      1  C1  DEN d   1       0.517   4.601  -0.942  0.00  0.00     0.130 A 
ATOM      2  C2  DEN d   1       1.765   5.126  -1.489  0.00  0.00    -0.031 A 
ATOM      3  C3  DEN d   1       2.850   4.191  -1.130  0.00  0.00     0.027 A 
ATOM      4  C4  DEN d   1       2.719   1.990   0.207  0.00  0.00     0.027 A 
ATOM      5  C5  DEN d   1       1.877   1.138   0.887  0.00  0.00    -0.003 A 
ATOM      6  C6  DEN d   1       0.540   1.396   1.033  0.00  0.00     0.001 A 
ATOM      7  C7  DEN d   1      -0.004   2.511   0.452  0.00  0.00     0.017 A 
ATOM      8  C8  DEN d   1       0.840   3.379  -0.229  0.00  0.00    -0.094 A 
ATOM      9  C9  DEN d   1       2.187   3.094  -0.375  0.00  0.00    -0.072 A 
ENDROOT
TORSDOF 0
ENDMDL
