MODEL 1
REMARK minimizedAffinity 8.31903839
REMARK minimizedRMSD -1
REMARK  0 active torsions:
REMARK  status: ('A' for Active; 'I' for Inactive)
ROOT
ATOM      1  C1  DEN d   1       1.351   2.053   1.092  0.00  0.00     0.130 A 
ATOM      2  C2  DEN d   1       2.635   1.357   1.123  0.00  0.00    -0.031 A 
ATOM      3  C3  DEN d   1       2.366  -0.091   1.226  0.00  0.00     0.027 A 
ATOM      4  C4  DEN d   1       0.100  -1.318   1.334  0.00  0.00     0.027 A 
ATOM      5  C5  DEN d   1      -1.267  -1.151   1.351  0.00  0.00    -0.003 A 
ATOM      6  C6  DEN d   1      -1.852   0.087   1.317  0.00  0.00     0.001 A 
ATOM      7  C7  DEN d   1      -1.067   1.206   1.219  0.00  0.00     0.017 A 
ATOM      8  C8  DEN d   1       0.312   1.046   1.209  0.00  0.00    -0.094 A 
ATOM      9  C9  DEN d   1       0.884  -0.215   1.232  0.00  0.00    -0.072 A 
ENDROOT
TORSDOF 0
ENDMDL
