MODEL 1
REMARK minimizedAffinity 15.1552114
REMARK minimizedRMSD -1
REMARK  0 active torsions:
REMARK  status: ('A' for Active; 'I' for Inactive)
ROOT
ATOM      1  C1  DEN d   1      -1.108  -0.103   0.648  0.00  0.00     0.130 A 
ATOM      2  C2  DEN d   1      -1.535  -1.498   0.705  0.00  0.00    -0.031 A 
ATOM      3  C3  DEN d   1      -0.469  -2.276   1.368  0.00  0.00     0.027 A 
ATOM      4  C4  DEN d   1       1.789  -1.457   2.311  0.00  0.00     0.027 A 
ATOM      5  C5  DEN d   1       2.601  -0.359   2.483  0.00  0.00    -0.003 A 
ATOM      6  C6  DEN d   1       2.252   0.886   2.030  0.00  0.00     0.001 A 
ATOM      7  C7  DEN d   1       1.039   1.071   1.421  0.00  0.00     0.017 A 
ATOM      8  C8  DEN d   1       0.218  -0.034   1.236  0.00  0.00    -0.094 A 
ATOM      9  C9  DEN d   1       0.583  -1.281   1.713  0.00  0.00    -0.072 A 
ENDROOT
TORSDOF 0
ENDMDL
