MODEL 1
REMARK minimizedAffinity 9.7106638
REMARK minimizedRMSD -1
REMARK  0 active torsions:
REMARK  status: ('A' for Active; 'I' for Inactive)
ROOT
ATOM      1  C1  DEN d   1       3.042   1.613   2.272  0.00  0.00     0.130 A 
ATOM      2  C2  DEN d   1       2.576   2.244   1.040  0.00  0.00    -0.031 A 
ATOM      3  C3  DEN d   1       1.603   1.336   0.401  0.00  0.00     0.027 A 
ATOM      4  C4  DEN d   1       0.772  -0.972   1.198  0.00  0.00     0.027 A 
ATOM      5  C5  DEN d   1       0.890  -1.930   2.182  0.00  0.00    -0.003 A 
ATOM      6  C6  DEN d   1       1.751  -1.790   3.237  0.00  0.00     0.001 A 
ATOM      7  C7  DEN d   1       2.496  -0.646   3.359  0.00  0.00     0.017 A 
ATOM      8  C8  DEN d   1       2.388   0.320   2.367  0.00  0.00    -0.094 A 
ATOM      9  C9  DEN d   1       1.503   0.165   1.314  0.00  0.00    -0.072 A 
ENDROOT
TORSDOF 0
ENDMDL
