MODEL 1
REMARK minimizedAffinity 4.37985373
REMARK minimizedRMSD -1
REMARK  0 active torsions:
REMARK  status: ('A' for Active; 'I' for Inactive)
ROOT
ATOM      1  C1  DEN d   1       1.405   1.531   0.081  0.00  0.00     0.130 A 
ATOM      2  C2  DEN d   1       2.465   2.396   0.593  0.00  0.00    -0.031 A 
ATOM      3  C3  DEN d   1       3.031   1.760   1.799  0.00  0.00     0.027 A 
ATOM      4  C4  DEN d   1       2.378  -0.472   2.915  0.00  0.00     0.027 A 
ATOM      5  C5  DEN d   1       1.527  -1.553   2.850  0.00  0.00    -0.003 A 
ATOM      6  C6  DEN d   1       0.561  -1.664   1.885  0.00  0.00     0.001 A 
ATOM      7  C7  DEN d   1       0.452  -0.699   0.919  0.00  0.00     0.017 A 
ATOM      8  C8  DEN d   1       1.302   0.397   0.983  0.00  0.00    -0.094 A 
ATOM      9  C9  DEN d   1       2.280   0.486   1.958  0.00  0.00    -0.072 A 
ENDROOT
TORSDOF 0
ENDMDL
