MODEL 1
REMARK minimizedAffinity 0.869045079
REMARK minimizedRMSD -1
REMARK  0 active torsions:
REMARK  status: ('A' for Active; 'I' for Inactive)
ROOT
ATOM      1  C1  DEN d   1       2.984   1.258   1.378  0.00  0.00     0.130 A 
ATOM      2  C2  DEN d   1       2.538   2.246   0.399  0.00  0.00    -0.031 A 
ATOM      3  C3  DEN d   1       1.140   1.934   0.042  0.00  0.00     0.027 A 
ATOM      4  C4  DEN d   1      -0.372   0.032   0.908  0.00  0.00     0.027 A 
ATOM      5  C5  DEN d   1      -0.431  -1.064   1.740  0.00  0.00    -0.003 A 
ATOM      6  C6  DEN d   1       0.645  -1.479   2.478  0.00  0.00     0.001 A 
ATOM      7  C7  DEN d   1       1.815  -0.768   2.433  0.00  0.00     0.017 A 
ATOM      8  C8  DEN d   1       1.884   0.334   1.590  0.00  0.00    -0.094 A 
ATOM      9  C9  DEN d   1       0.782   0.746   0.862  0.00  0.00    -0.072 A 
ENDROOT
TORSDOF 0
ENDMDL
