MODEL 1
REMARK minimizedAffinity 7.02719402
REMARK minimizedRMSD -1
REMARK  0 active torsions:
REMARK  status: ('A' for Active; 'I' for Inactive)
ROOT
ATOM      1  C1  DEN d   1       1.428   2.348   0.817  0.00  0.00     0.130 A 
ATOM      2  C2  DEN d   1       2.820   1.932   0.968  0.00  0.00    -0.031 A 
ATOM      3  C3  DEN d   1       2.833   0.496   1.311  0.00  0.00     0.027 A 
ATOM      4  C4  DEN d   1       0.843  -1.117   1.618  0.00  0.00     0.027 A 
ATOM      5  C5  DEN d   1      -0.530  -1.220   1.604  0.00  0.00    -0.003 A 
ATOM      6  C6  DEN d   1      -1.341  -0.144   1.362  0.00  0.00     0.001 A 
ATOM      7  C7  DEN d   1      -0.785   1.076   1.079  0.00  0.00     0.017 A 
ATOM      8  C8  DEN d   1       0.599   1.190   1.099  0.00  0.00    -0.094 A 
ATOM      9  C9  DEN d   1       1.402   0.087   1.334  0.00  0.00    -0.072 A 
ENDROOT
TORSDOF 0
ENDMDL
