MODEL 1
REMARK minimizedAffinity 0.847200096
REMARK minimizedRMSD -1
REMARK  0 active torsions:
REMARK  status: ('A' for Active; 'I' for Inactive)
ROOT
ATOM      1  C1  DEN d   1       1.618   1.319   1.928  0.00  0.00     0.130 A 
ATOM      2  C2  DEN d   1       2.386   1.430   3.166  0.00  0.00    -0.031 A 
ATOM      3  C3  DEN d   1       2.387   0.108   3.823  0.00  0.00     0.027 A 
ATOM      4  C4  DEN d   1       1.284  -2.091   3.046  0.00  0.00     0.027 A 
ATOM      5  C5  DEN d   1       0.515  -2.675   2.064  0.00  0.00    -0.003 A 
ATOM      6  C6  DEN d   1       0.035  -1.967   0.994  0.00  0.00     0.001 A 
ATOM      7  C7  DEN d   1       0.358  -0.642   0.857  0.00  0.00     0.017 A 
ATOM      8  C8  DEN d   1       1.126  -0.044   1.847  0.00  0.00    -0.094 A 
ATOM      9  C9  DEN d   1       1.612  -0.780   2.915  0.00  0.00    -0.072 A 
ENDROOT
TORSDOF 0
ENDMDL
