MODEL 1
REMARK minimizedAffinity 1.26817811
REMARK minimizedRMSD -1
REMARK  1 active torsions:
REMARK  status: ('A' for Active; 'I' for Inactive)
REMARK    1  A    between atoms: N_2  and  C1_3 
ROOT
ATOM      1  C1  UNL d   1       0.325  -1.790   3.316  0.00  0.00     0.143 A 
ATOM      2  C2  UNL d   1       1.363  -1.036   2.757  0.00  0.00    -0.057 A 
ATOM      3  C3  UNL d   1       1.110  -0.052   1.794  0.00  0.00     0.033 A 
ATOM      4  C4  UNL d   1      -0.188   0.176   1.350  0.00  0.00    -0.042 A 
ATOM      5  C5  UNL d   1      -1.233  -0.577   1.873  0.00  0.00     0.033 A 
ATOM      6  C6  UNL d   1      -0.974  -1.554   2.839  0.00  0.00    -0.057 A 
ENDROOT
BRANCH   1   7
ATOM      7  N   UNL d   1       0.523  -2.849   4.204  0.00  0.00    -0.732 N 
ATOM      8  C   UNL d   1       1.595  -2.806   5.176  0.00  0.00     0.284 C 
ATOM      9  H3  UNL d   1      -0.351  -3.221   4.567  0.00  0.00     0.395 HD
ENDBRANCH   1   7
TORSDOF 1
ENDMDL
