MODEL 1
REMARK minimizedAffinity -1.76417983
REMARK minimizedRMSD -1
REMARK  1 active torsions:
REMARK  status: ('A' for Active; 'I' for Inactive)
REMARK    1  A    between atoms: N_2  and  C1_3 
ROOT
ATOM      1  C1  UNL d   1      -0.634  -0.363   2.854  0.00  0.00     0.143 A 
ATOM      2  C2  UNL d   1      -1.658  -1.233   3.245  0.00  0.00    -0.057 A 
ATOM      3  C3  UNL d   1      -1.379  -2.421   3.933  0.00  0.00     0.033 A 
ATOM      4  C4  UNL d   1      -0.064  -2.774   4.217  0.00  0.00    -0.042 A 
ATOM      5  C5  UNL d   1       0.972  -1.937   3.816  0.00  0.00     0.033 A 
ATOM      6  C6  UNL d   1       0.686  -0.749   3.135  0.00  0.00    -0.057 A 
ENDROOT
BRANCH   1   7
ATOM      7  N   UNL d   1      -0.840   0.782   2.082  0.00  0.00    -0.732 N 
ATOM      8  C   UNL d   1      -0.995   0.686   0.646  0.00  0.00     0.284 C 
ATOM      9  H3  UNL d   1      -1.476   1.441   2.525  0.00  0.00     0.395 HD
ENDBRANCH   1   7
TORSDOF 1
ENDMDL
