MODEL 1
REMARK minimizedAffinity -1.20744801
REMARK minimizedRMSD -1
REMARK  1 active torsions:
REMARK  status: ('A' for Active; 'I' for Inactive)
REMARK    1  A    between atoms: N_2  and  C1_3 
ROOT
ATOM      1  C1  UNL d   1      -1.083  -0.684   1.921  0.00  0.00     0.143 A 
ATOM      2  C2  UNL d   1      -1.465  -1.854   2.587  0.00  0.00    -0.057 A 
ATOM      3  C3  UNL d   1      -0.595  -2.503   3.471  0.00  0.00     0.033 A 
ATOM      4  C4  UNL d   1       0.688  -2.008   3.683  0.00  0.00    -0.042 A 
ATOM      5  C5  UNL d   1       1.098  -0.861   3.012  0.00  0.00     0.033 A 
ATOM      6  C6  UNL d   1       0.221  -0.213   2.136  0.00  0.00    -0.057 A 
ENDROOT
BRANCH   1   7
ATOM      7  N   UNL d   1      -1.867  -0.048   0.955  0.00  0.00    -0.732 N 
ATOM      8  C   UNL d   1      -1.798  -0.451  -0.433  0.00  0.00     0.284 C 
ATOM      9  H3  UNL d   1      -2.810   0.144   1.285  0.00  0.00     0.395 HD
ENDBRANCH   1   7
TORSDOF 1
ENDMDL
