MODEL 1
REMARK minimizedAffinity 2.2745769
REMARK minimizedRMSD -1
REMARK  1 active torsions:
REMARK  status: ('A' for Active; 'I' for Inactive)
REMARK    1  A    between atoms: N_2  and  C1_3 
ROOT
ATOM      1  C1  UNL d   1       0.317  -5.317  -3.353  0.00  0.00     0.143 A 
ATOM      2  C2  UNL d   1      -0.642  -5.650  -4.315  0.00  0.00    -0.057 A 
ATOM      3  C3  UNL d   1      -0.272  -6.000  -5.619  0.00  0.00     0.033 A 
ATOM      4  C4  UNL d   1       1.068  -5.994  -5.993  0.00  0.00    -0.042 A 
ATOM      5  C5  UNL d   1       2.037  -5.641  -5.061  0.00  0.00     0.033 A 
ATOM      6  C6  UNL d   1       1.661  -5.300  -3.758  0.00  0.00    -0.057 A 
ENDROOT
BRANCH   1   7
ATOM      7  N   UNL d   1       0.006  -4.865  -2.068  0.00  0.00    -0.732 N 
ATOM      8  C   UNL d   1      -0.891  -3.746  -1.877  0.00  0.00     0.284 C 
ATOM      9  H3  UNL d   1      -0.137  -5.630  -1.412  0.00  0.00     0.395 HD
ENDBRANCH   1   7
TORSDOF 1
ENDMDL
