MODEL 1
REMARK minimizedAffinity 6.69197512
REMARK minimizedRMSD -1
REMARK  1 active torsions:
REMARK  status: ('A' for Active; 'I' for Inactive)
REMARK    1  A    between atoms: N_2  and  C1_3 
ROOT
ATOM      1  C1  UNL d   1      -4.093  -3.804  -1.685  0.00  0.00     0.143 A 
ATOM      2  C2  UNL d   1      -3.188  -2.943  -1.054  0.00  0.00    -0.057 A 
ATOM      3  C3  UNL d   1      -3.369  -1.555  -1.077  0.00  0.00     0.033 A 
ATOM      4  C4  UNL d   1      -4.446  -0.999  -1.760  0.00  0.00    -0.042 A 
ATOM      5  C5  UNL d   1      -5.344  -1.834  -2.416  0.00  0.00     0.033 A 
ATOM      6  C6  UNL d   1      -5.162  -3.220  -2.383  0.00  0.00    -0.057 A 
ENDROOT
BRANCH   1   7
ATOM      7  N   UNL d   1      -3.914  -5.186  -1.781  0.00  0.00    -0.732 N 
ATOM      8  C   UNL d   1      -4.846  -5.999  -2.532  0.00  0.00     0.284 C 
ATOM      9  H3  UNL d   1      -2.938  -5.443  -1.912  0.00  0.00     0.395 HD
ENDBRANCH   1   7
TORSDOF 1
ENDMDL
