MODEL 1
REMARK minimizedAffinity -1.41813111
REMARK minimizedRMSD -1
REMARK  1 active torsions:
REMARK  status: ('A' for Active; 'I' for Inactive)
REMARK    1  A    between atoms: N_2  and  C1_3 
ROOT
ATOM      1  C1  UNL d   1      -5.171   3.197   1.388  0.00  0.00     0.143 A 
ATOM      2  C2  UNL d   1      -5.817   3.640   2.547  0.00  0.00    -0.057 A 
ATOM      3  C3  UNL d   1      -5.991   5.005   2.805  0.00  0.00     0.033 A 
ATOM      4  C4  UNL d   1      -5.495   5.955   1.918  0.00  0.00    -0.042 A 
ATOM      5  C5  UNL d   1      -4.828   5.538   0.772  0.00  0.00     0.033 A 
ATOM      6  C6  UNL d   1      -4.663   4.173   0.517  0.00  0.00    -0.057 A 
ENDROOT
BRANCH   1   7
ATOM      7  N   UNL d   1      -4.880   1.856   1.123  0.00  0.00    -0.732 N 
ATOM      8  C   UNL d   1      -3.825   1.175   1.843  0.00  0.00     0.284 C 
ATOM      9  H3  UNL d   1      -5.719   1.297   0.986  0.00  0.00     0.395 HD
ENDBRANCH   1   7
TORSDOF 1
ENDMDL
