MODEL 1
REMARK minimizedAffinity -0.772198558
REMARK minimizedRMSD -1
REMARK  1 active torsions:
REMARK  status: ('A' for Active; 'I' for Inactive)
REMARK    1  A    between atoms: N_2  and  C1_3 
ROOT
ATOM      1  C1  UNL d   1      -5.637   4.922   3.138  0.00  0.00     0.143 A 
ATOM      2  C2  UNL d   1      -6.000   3.720   2.521  0.00  0.00    -0.057 A 
ATOM      3  C3  UNL d   1      -5.970   3.583   1.127  0.00  0.00     0.033 A 
ATOM      4  C4  UNL d   1      -5.605   4.657   0.324  0.00  0.00    -0.042 A 
ATOM      5  C5  UNL d   1      -5.265   5.869   0.915  0.00  0.00     0.033 A 
ATOM      6  C6  UNL d   1      -5.290   5.998   2.307  0.00  0.00    -0.057 A 
ENDROOT
BRANCH   1   7
ATOM      7  N   UNL d   1      -5.740   5.152   4.513  0.00  0.00    -0.732 N 
ATOM      8  C   UNL d   1      -5.996   4.059   5.426  0.00  0.00     0.284 C 
ATOM      9  H3  UNL d   1      -5.050   5.821   4.847  0.00  0.00     0.395 HD
ENDBRANCH   1   7
TORSDOF 1
ENDMDL
