MODEL 1
REMARK minimizedAffinity -2.62937832
REMARK minimizedRMSD -1
REMARK  1 active torsions:
REMARK  status: ('A' for Active; 'I' for Inactive)
REMARK    1  A    between atoms: N_2  and  C1_3 
ROOT
ATOM      1  C1  UNL d   1      -5.761   3.848   3.936  0.00  0.00     0.143 A 
ATOM      2  C2  UNL d   1      -5.554   5.231   3.968  0.00  0.00    -0.057 A 
ATOM      3  C3  UNL d   1      -5.594   6.000   2.799  0.00  0.00     0.033 A 
ATOM      4  C4  UNL d   1      -5.815   5.392   1.567  0.00  0.00    -0.042 A 
ATOM      5  C5  UNL d   1      -6.000   4.015   1.508  0.00  0.00     0.033 A 
ATOM      6  C6  UNL d   1      -5.965   3.254   2.680  0.00  0.00    -0.057 A 
ENDROOT
BRANCH   1   7
ATOM      7  N   UNL d   1      -5.636   3.016   5.050  0.00  0.00    -0.732 N 
ATOM      8  C   UNL d   1      -4.495   3.134   5.933  0.00  0.00     0.284 C 
ATOM      9  H3  UNL d   1      -6.521   2.875   5.532  0.00  0.00     0.395 HD
ENDBRANCH   1   7
TORSDOF 1
ENDMDL
