MODEL 1
REMARK minimizedAffinity -1.43429315
REMARK minimizedRMSD -1
REMARK  1 active torsions:
REMARK  status: ('A' for Active; 'I' for Inactive)
REMARK    1  A    between atoms: N_2  and  C1_3 
ROOT
ATOM      1  C1  UNL d   1      -5.040   4.238   3.833  0.00  0.00     0.143 A 
ATOM      2  C2  UNL d   1      -4.886   3.191   2.917  0.00  0.00    -0.057 A 
ATOM      3  C3  UNL d   1      -5.255   3.340   1.575  0.00  0.00     0.033 A 
ATOM      4  C4  UNL d   1      -5.814   4.534   1.129  0.00  0.00    -0.042 A 
ATOM      5  C5  UNL d   1      -6.000   5.579   2.027  0.00  0.00     0.033 A 
ATOM      6  C6  UNL d   1      -5.622   5.426   3.365  0.00  0.00    -0.057 A 
ENDROOT
BRANCH   1   7
ATOM      7  N   UNL d   1      -4.783   4.119   5.201  0.00  0.00    -0.732 N 
ATOM      8  C   UNL d   1      -3.656   3.344   5.674  0.00  0.00     0.284 C 
ATOM      9  H3  UNL d   1      -4.925   4.994   5.700  0.00  0.00     0.395 HD
ENDBRANCH   1   7
TORSDOF 1
ENDMDL
