MODEL 1
REMARK minimizedAffinity 0.541488528
REMARK minimizedRMSD -1
REMARK  1 active torsions:
REMARK  status: ('A' for Active; 'I' for Inactive)
REMARK    1  A    between atoms: N_2  and  C1_3 
ROOT
ATOM      1  C1  UNL d   1      -0.447   0.006   0.523  0.00  0.00     0.143 A 
ATOM      2  C2  UNL d   1      -0.284  -0.645  -0.705  0.00  0.00    -0.057 A 
ATOM      3  C3  UNL d   1      -1.373  -1.218  -1.373  0.00  0.00     0.033 A 
ATOM      4  C4  UNL d   1      -2.644  -1.175  -0.809  0.00  0.00    -0.042 A 
ATOM      5  C5  UNL d   1      -2.825  -0.555   0.422  0.00  0.00     0.033 A 
ATOM      6  C6  UNL d   1      -1.735   0.021   1.081  0.00  0.00    -0.057 A 
ENDROOT
BRANCH   1   7
ATOM      7  N   UNL d   1       0.611   0.508   1.284  0.00  0.00    -0.732 N 
ATOM      8  C   UNL d   1       1.279  -0.326   2.259  0.00  0.00     0.284 C 
ATOM      9  H3  UNL d   1       1.239   1.092   0.737  0.00  0.00     0.395 HD
ENDBRANCH   1   7
TORSDOF 1
ENDMDL
