MODEL 1
REMARK minimizedAffinity -1.96004021
REMARK minimizedRMSD -1
REMARK  1 active torsions:
REMARK  status: ('A' for Active; 'I' for Inactive)
REMARK    1  A    between atoms: N_2  and  C1_3 
ROOT
ATOM      1  C1  UNL d   1      -5.896   4.665   3.156  0.00  0.00     0.143 A 
ATOM      2  C2  UNL d   1      -5.980   5.905   3.799  0.00  0.00    -0.057 A 
ATOM      3  C3  UNL d   1      -5.996   5.999   5.195  0.00  0.00     0.033 A 
ATOM      4  C4  UNL d   1      -5.957   4.849   5.976  0.00  0.00    -0.042 A 
ATOM      5  C5  UNL d   1      -5.898   3.605   5.359  0.00  0.00     0.033 A 
ATOM      6  C6  UNL d   1      -5.876   3.518   3.964  0.00  0.00    -0.057 A 
ENDROOT
BRANCH   1   7
ATOM      7  N   UNL d   1      -5.975   4.500   1.771  0.00  0.00    -0.732 N 
ATOM      8  C   UNL d   1      -5.236   5.370   0.881  0.00  0.00     0.284 C 
ATOM      9  H3  UNL d   1      -5.968   3.521   1.495  0.00  0.00     0.395 HD
ENDBRANCH   1   7
TORSDOF 1
ENDMDL
