MODEL 1
REMARK minimizedAffinity -2.99063063
REMARK minimizedRMSD -1
REMARK  1 active torsions:
REMARK  status: ('A' for Active; 'I' for Inactive)
REMARK    1  A    between atoms: N_2  and  C1_3 
ROOT
ATOM      1  C1  UNL d   1      -5.356   4.488   3.915  0.00  0.00     0.143 A 
ATOM      2  C2  UNL d   1      -4.515   3.749   3.076  0.00  0.00    -0.057 A 
ATOM      3  C3  UNL d   1      -4.286   4.140   1.751  0.00  0.00     0.033 A 
ATOM      4  C4  UNL d   1      -4.920   5.264   1.232  0.00  0.00    -0.042 A 
ATOM      5  C5  UNL d   1      -5.779   5.999   2.040  0.00  0.00     0.033 A 
ATOM      6  C6  UNL d   1      -5.999   5.608   3.364  0.00  0.00    -0.057 A 
ENDROOT
BRANCH   1   7
ATOM      7  N   UNL d   1      -5.701   4.096   5.211  0.00  0.00    -0.732 N 
ATOM      8  C   UNL d   1      -4.828   3.233   5.977  0.00  0.00     0.284 C 
ATOM      9  H3  UNL d   1      -6.112   4.855   5.750  0.00  0.00     0.395 HD
ENDBRANCH   1   7
TORSDOF 1
ENDMDL
