MODEL 1
REMARK minimizedAffinity 7.60526133
REMARK minimizedRMSD -1
REMARK  1 active torsions:
REMARK  status: ('A' for Active; 'I' for Inactive)
REMARK    1  A    between atoms: N_2  and  C1_3 
ROOT
ATOM      1  C1  UNL d   1       2.979   2.863   0.331  0.00  0.00     0.143 A 
ATOM      2  C2  UNL d   1       2.900   1.778  -0.548  0.00  0.00    -0.057 A 
ATOM      3  C3  UNL d   1       3.589   1.780  -1.767  0.00  0.00     0.033 A 
ATOM      4  C4  UNL d   1       4.349   2.883  -2.142  0.00  0.00    -0.042 A 
ATOM      5  C5  UNL d   1       4.422   3.983  -1.295  0.00  0.00     0.033 A 
ATOM      6  C6  UNL d   1       3.737   3.972  -0.076  0.00  0.00    -0.057 A 
ENDROOT
BRANCH   1   7
ATOM      7  N   UNL d   1       2.239   2.963   1.512  0.00  0.00    -0.732 N 
ATOM      8  C   UNL d   1       2.904   3.001   2.797  0.00  0.00     0.284 C 
ATOM      9  H3  UNL d   1       1.459   3.610   1.428  0.00  0.00     0.395 HD
ENDBRANCH   1   7
TORSDOF 1
ENDMDL
