MODEL 1
REMARK minimizedAffinity -3.00312877
REMARK minimizedRMSD -1
REMARK  1 active torsions:
REMARK  status: ('A' for Active; 'I' for Inactive)
REMARK    1  A    between atoms: N_2  and  C1_3 
ROOT
ATOM      1  C1  UNL d   1      -5.264   4.022   4.424  0.00  0.00     0.143 A 
ATOM      2  C2  UNL d   1      -5.694   3.321   3.291  0.00  0.00    -0.057 A 
ATOM      3  C3  UNL d   1      -5.723   3.928   2.030  0.00  0.00     0.033 A 
ATOM      4  C4  UNL d   1      -5.349   5.259   1.883  0.00  0.00    -0.042 A 
ATOM      5  C5  UNL d   1      -4.943   5.983   2.999  0.00  0.00     0.033 A 
ATOM      6  C6  UNL d   1      -4.909   5.369   4.255  0.00  0.00    -0.057 A 
ENDROOT
BRANCH   1   7
ATOM      7  N   UNL d   1      -5.306   3.504   5.721  0.00  0.00    -0.732 N 
ATOM      8  C   UNL d   1      -5.998   2.264   5.998  0.00  0.00     0.284 C 
ATOM      9  H3  UNL d   1      -4.417   3.602   6.207  0.00  0.00     0.395 HD
ENDBRANCH   1   7
TORSDOF 1
ENDMDL
