MODEL 1
REMARK minimizedAffinity -0.767314613
REMARK minimizedRMSD -1
REMARK  1 active torsions:
REMARK  status: ('A' for Active; 'I' for Inactive)
REMARK    1  A    between atoms: N_2  and  C1_3 
ROOT
ATOM      1  C1  UNL d   1      -5.394   5.250   2.267  0.00  0.00     0.143 A 
ATOM      2  C2  UNL d   1      -5.625   3.879   2.422  0.00  0.00    -0.057 A 
ATOM      3  C3  UNL d   1      -5.109   3.175   3.516  0.00  0.00     0.033 A 
ATOM      4  C4  UNL d   1      -4.325   3.827   4.463  0.00  0.00    -0.042 A 
ATOM      5  C5  UNL d   1      -4.062   5.184   4.316  0.00  0.00     0.033 A 
ATOM      6  C6  UNL d   1      -4.585   5.883   3.224  0.00  0.00    -0.057 A 
ENDROOT
BRANCH   1   7
ATOM      7  N   UNL d   1      -5.797   5.986   1.149  0.00  0.00    -0.732 N 
ATOM      8  C   UNL d   1      -4.997   5.992  -0.057  0.00  0.00     0.284 C 
ATOM      9  H3  UNL d   1      -6.799   5.922   0.983  0.00  0.00     0.395 HD
ENDBRANCH   1   7
TORSDOF 1
ENDMDL
