MODEL 1
REMARK minimizedAffinity -2.52044749
REMARK minimizedRMSD -1
REMARK  1 active torsions:
REMARK  status: ('A' for Active; 'I' for Inactive)
REMARK    1  A    between atoms: N_2  and  C1_3 
ROOT
ATOM      1  C1  UNL d   1      -5.990   4.762   3.136  0.00  0.00     0.143 A 
ATOM      2  C2  UNL d   1      -5.980   3.575   3.877  0.00  0.00    -0.057 A 
ATOM      3  C3  UNL d   1      -5.999   3.592   5.277  0.00  0.00     0.033 A 
ATOM      4  C4  UNL d   1      -6.000   4.801   5.963  0.00  0.00    -0.042 A 
ATOM      5  C5  UNL d   1      -5.985   5.994   5.249  0.00  0.00     0.033 A 
ATOM      6  C6  UNL d   1      -5.972   5.970   3.851  0.00  0.00    -0.057 A 
ENDROOT
BRANCH   1   7
ATOM      7  N   UNL d   1      -5.872   4.812   1.745  0.00  0.00    -0.732 N 
ATOM      8  C   UNL d   1      -5.284   5.964   1.096  0.00  0.00     0.284 C 
ATOM      9  H3  UNL d   1      -5.586   3.920   1.347  0.00  0.00     0.395 HD
ENDBRANCH   1   7
TORSDOF 1
ENDMDL
