MODEL 1
REMARK minimizedAffinity -3.11577225
REMARK minimizedRMSD -1
REMARK  1 active torsions:
REMARK  status: ('A' for Active; 'I' for Inactive)
REMARK    1  A    between atoms: N_2  and  C1_3 
ROOT
ATOM      1  C1  UNL d   1      -4.954   5.422   2.615  0.00  0.00     0.143 A 
ATOM      2  C2  UNL d   1      -4.386   6.000   3.756  0.00  0.00    -0.057 A 
ATOM      3  C3  UNL d   1      -4.580   5.442   5.026  0.00  0.00     0.033 A 
ATOM      4  C4  UNL d   1      -5.372   4.310   5.181  0.00  0.00    -0.042 A 
ATOM      5  C5  UNL d   1      -5.967   3.733   4.065  0.00  0.00     0.033 A 
ATOM      6  C6  UNL d   1      -5.764   4.290   2.798  0.00  0.00    -0.057 A 
ENDROOT
BRANCH   1   7
ATOM      7  N   UNL d   1      -4.879   5.984   1.339  0.00  0.00    -0.732 N 
ATOM      8  C   UNL d   1      -5.999   5.894   0.427  0.00  0.00     0.284 C 
ATOM      9  H3  UNL d   1      -4.416   6.890   1.340  0.00  0.00     0.395 HD
ENDBRANCH   1   7
TORSDOF 1
ENDMDL
