MODEL 1
REMARK minimizedAffinity -2.42721963
REMARK minimizedRMSD -1
REMARK  1 active torsions:
REMARK  status: ('A' for Active; 'I' for Inactive)
REMARK    1  A    between atoms: N_2  and  C1_3 
ROOT
ATOM      1  C1  UNL d   1      -1.528  -1.550   1.302  0.00  0.00     0.143 A 
ATOM      2  C2  UNL d   1      -2.417  -1.280   0.255  0.00  0.00    -0.057 A 
ATOM      3  C3  UNL d   1      -1.956  -0.854  -0.996  0.00  0.00     0.033 A 
ATOM      4  C4  UNL d   1      -0.596  -0.662  -1.216  0.00  0.00    -0.042 A 
ATOM      5  C5  UNL d   1       0.303  -0.901  -0.183  0.00  0.00     0.033 A 
ATOM      6  C6  UNL d   1      -0.162  -1.333   1.063  0.00  0.00    -0.057 A 
ENDROOT
BRANCH   1   7
ATOM      7  N   UNL d   1      -1.930  -1.882   2.598  0.00  0.00    -0.732 N 
ATOM      8  C   UNL d   1      -1.597  -1.024   3.715  0.00  0.00     0.284 C 
ATOM      9  H3  UNL d   1      -2.877  -2.254   2.627  0.00  0.00     0.395 HD
ENDBRANCH   1   7
TORSDOF 1
ENDMDL
