MODEL 1
REMARK minimizedAffinity -1.99878442
REMARK minimizedRMSD -1
REMARK  1 active torsions:
REMARK  status: ('A' for Active; 'I' for Inactive)
REMARK    1  A    between atoms: N_2  and  C1_3 
ROOT
ATOM      1  C1  UNL d   1      -5.417   5.426   2.333  0.00  0.00     0.143 A 
ATOM      2  C2  UNL d   1      -6.000   5.998   3.470  0.00  0.00    -0.057 A 
ATOM      3  C3  UNL d   1      -5.998   5.330   4.700  0.00  0.00     0.033 A 
ATOM      4  C4  UNL d   1      -5.437   4.061   4.809  0.00  0.00    -0.042 A 
ATOM      5  C5  UNL d   1      -4.875   3.463   3.687  0.00  0.00     0.033 A 
ATOM      6  C6  UNL d   1      -4.874   4.138   2.462  0.00  0.00    -0.057 A 
ENDROOT
BRANCH   1   7
ATOM      7  N   UNL d   1      -5.474   5.997   1.059  0.00  0.00    -0.732 N 
ATOM      8  C   UNL d   1      -5.750   5.181  -0.103  0.00  0.00     0.284 C 
ATOM      9  H3  UNL d   1      -5.950   6.897   1.058  0.00  0.00     0.395 HD
ENDBRANCH   1   7
TORSDOF 1
ENDMDL
