MODEL 1
REMARK minimizedAffinity 8.27331161
REMARK minimizedRMSD -1
REMARK  0 active torsions:
REMARK  status: ('A' for Active; 'I' for Inactive)
ROOT
ATOM      1  N1  IND d   1       2.203   2.317  -3.249  0.00  0.00    -0.196 N 
ATOM      2  C2  IND d   1       0.886   2.452  -3.587  0.00  0.00     0.054 A 
ATOM      3  C3  IND d   1       0.095   2.069  -2.559  0.00  0.00    -0.031 A 
ATOM      4  C4  IND d   1       0.749   1.285  -0.196  0.00  0.00     0.051 A 
ATOM      5  C5  IND d   1       1.834   0.966   0.571  0.00  0.00    -0.031 A 
ATOM      6  C6  IND d   1       3.124   1.087   0.096  0.00  0.00     0.015 A 
ATOM      7  C7  IND d   1       3.378   1.543  -1.167  0.00  0.00    -0.016 A 
ATOM      8  C8  IND d   1       2.278   1.861  -1.951  0.00  0.00    -0.047 A 
ATOM      9  C9  IND d   1       0.966   1.700  -1.489  0.00  0.00    -0.096 A 
ATOM     10  HN1 IND d   1       2.873   2.489  -3.761  0.00  0.00     0.298 HD
ENDROOT
TORSDOF 0
ENDMDL
