MODEL 1
REMARK minimizedAffinity 11.7824898
REMARK minimizedRMSD -1
REMARK  0 active torsions:
REMARK  status: ('A' for Active; 'I' for Inactive)
ROOT
ATOM      1  N1  IND d   1      -1.123   4.126  -5.973  0.00  0.00    -0.196 N 
ATOM      2  C2  IND d   1      -1.888   5.259  -5.975  0.00  0.00     0.054 A 
ATOM      3  C3  IND d   1      -1.636   5.999  -4.872  0.00  0.00    -0.031 A 
ATOM      4  C4  IND d   1       0.065   5.592  -2.983  0.00  0.00     0.051 A 
ATOM      5  C5  IND d   1       0.967   4.673  -2.525  0.00  0.00    -0.031 A 
ATOM      6  C6  IND d   1       1.225   3.502  -3.208  0.00  0.00     0.015 A 
ATOM      7  C7  IND d   1       0.597   3.211  -4.386  0.00  0.00    -0.016 A 
ATOM      8  C8  IND d   1      -0.325   4.139  -4.850  0.00  0.00    -0.047 A 
ATOM      9  C9  IND d   1      -0.622   5.309  -4.140  0.00  0.00    -0.096 A 
ATOM     10  HN1 IND d   1      -1.138   3.510  -6.572  0.00  0.00     0.298 HD
ENDROOT
TORSDOF 0
ENDMDL
