MODEL 1
REMARK minimizedAffinity 7.85848808
REMARK minimizedRMSD -1
REMARK  0 active torsions:
REMARK  status: ('A' for Active; 'I' for Inactive)
ROOT
ATOM      1  N1  IND d   1      -2.270   5.674  -5.998  0.00  0.00    -0.196 N 
ATOM      2  C2  IND d   1      -1.333   5.599  -5.006  0.00  0.00     0.054 A 
ATOM      3  C3  IND d   1      -1.925   5.668  -3.793  0.00  0.00    -0.031 A 
ATOM      4  C4  IND d   1      -4.427   5.802  -3.200  0.00  0.00     0.051 A 
ATOM      5  C5  IND d   1      -5.663   5.931  -3.768  0.00  0.00    -0.031 A 
ATOM      6  C6  IND d   1      -5.835   5.980  -5.136  0.00  0.00     0.015 A 
ATOM      7  C7  IND d   1      -4.774   5.889  -5.991  0.00  0.00    -0.016 A 
ATOM      8  C8  IND d   1      -3.516   5.764  -5.418  0.00  0.00    -0.047 A 
ATOM      9  C9  IND d   1      -3.331   5.757  -4.029  0.00  0.00    -0.096 A 
ATOM     10  HN1 IND d   1      -2.108   5.666  -6.842  0.00  0.00     0.298 HD
ENDROOT
TORSDOF 0
ENDMDL
