MODEL 1
REMARK minimizedAffinity 11.8376255
REMARK minimizedRMSD -1
REMARK  0 active torsions:
REMARK  status: ('A' for Active; 'I' for Inactive)
ROOT
ATOM      1  N1  IND d   1      -2.600   1.916   3.429  0.00  0.00    -0.196 N 
ATOM      2  C2  IND d   1      -2.563   1.567   4.750  0.00  0.00     0.054 A 
ATOM      3  C3  IND d   1      -2.040   0.329   4.895  0.00  0.00    -0.031 A 
ATOM      4  C4  IND d   1      -1.084  -1.263   3.111  0.00  0.00     0.051 A 
ATOM      5  C5  IND d   1      -0.932  -1.399   1.760  0.00  0.00    -0.031 A 
ATOM      6  C6  IND d   1      -1.333  -0.416   0.878  0.00  0.00     0.015 A 
ATOM      7  C7  IND d   1      -1.894   0.749   1.318  0.00  0.00    -0.016 A 
ATOM      8  C8  IND d   1      -2.057   0.888   2.689  0.00  0.00    -0.047 A 
ATOM      9  C9  IND d   1      -1.691  -0.123   3.586  0.00  0.00    -0.096 A 
ATOM     10  HN1 IND d   1      -2.909   2.653   3.113  0.00  0.00     0.298 HD
ENDROOT
TORSDOF 0
ENDMDL
