MODEL 1
REMARK minimizedAffinity 15.5152388
REMARK minimizedRMSD -1
REMARK  0 active torsions:
REMARK  status: ('A' for Active; 'I' for Inactive)
ROOT
ATOM      1  N1  IND d   1       3.189   1.361   2.116  0.00  0.00    -0.196 N 
ATOM      2  C2  IND d   1       2.594   0.871   0.987  0.00  0.00     0.054 A 
ATOM      3  C3  IND d   1       3.163   1.409  -0.115  0.00  0.00    -0.031 A 
ATOM      4  C4  IND d   1       5.151   3.034  -0.302  0.00  0.00     0.051 A 
ATOM      5  C5  IND d   1       6.000   3.790   0.457  0.00  0.00    -0.031 A 
ATOM      6  C6  IND d   1       5.956   3.772   1.836  0.00  0.00     0.015 A 
ATOM      7  C7  IND d   1       5.065   2.986   2.510  0.00  0.00    -0.016 A 
ATOM      8  C8  IND d   1       4.197   2.223   1.743  0.00  0.00    -0.047 A 
ATOM      9  C9  IND d   1       4.208   2.269   0.342  0.00  0.00    -0.096 A 
ATOM     10  HN1 IND d   1       2.970   1.165   2.924  0.00  0.00     0.298 HD
ENDROOT
TORSDOF 0
ENDMDL
