MODEL 1
REMARK minimizedAffinity 18.7852821
REMARK minimizedRMSD -1
REMARK  0 active torsions:
REMARK  status: ('A' for Active; 'I' for Inactive)
ROOT
ATOM      1  N1  IND d   1      -4.405   1.087   1.588  0.00  0.00    -0.196 N 
ATOM      2  C2  IND d   1      -5.040   0.465   0.550  0.00  0.00     0.054 A 
ATOM      3  C3  IND d   1      -4.298  -0.572   0.098  0.00  0.00    -0.031 A 
ATOM      4  C4  IND d   1      -2.061  -1.489   0.981  0.00  0.00     0.051 A 
ATOM      5  C5  IND d   1      -1.075  -1.231   1.891  0.00  0.00    -0.031 A 
ATOM      6  C6  IND d   1      -1.151  -0.167   2.767  0.00  0.00     0.015 A 
ATOM      7  C7  IND d   1      -2.227   0.675   2.772  0.00  0.00    -0.016 A 
ATOM      8  C8  IND d   1      -3.226   0.420   1.844  0.00  0.00    -0.047 A 
ATOM      9  C9  IND d   1      -3.135  -0.632   0.925  0.00  0.00    -0.096 A 
ATOM     10  HN1 IND d   1      -4.693   1.778   2.011  0.00  0.00     0.298 HD
ENDROOT
TORSDOF 0
ENDMDL
