MODEL 1
REMARK minimizedAffinity 15.6108894
REMARK minimizedRMSD -1
REMARK  0 active torsions:
REMARK  status: ('A' for Active; 'I' for Inactive)
ROOT
ATOM      1  N1  IND d   1       3.539   1.959  -0.679  0.00  0.00    -0.196 N 
ATOM      2  C2  IND d   1       2.630   1.590   0.273  0.00  0.00     0.054 A 
ATOM      3  C3  IND d   1       1.371   1.785  -0.178  0.00  0.00    -0.031 A 
ATOM      4  C4  IND d   1       0.568   2.605  -2.482  0.00  0.00     0.051 A 
ATOM      5  C5  IND d   1       1.028   3.097  -3.671  0.00  0.00    -0.031 A 
ATOM      6  C6  IND d   1       2.377   3.236  -3.929  0.00  0.00     0.015 A 
ATOM      7  C7  IND d   1       3.319   2.875  -3.008  0.00  0.00    -0.016 A 
ATOM      8  C8  IND d   1       2.855   2.381  -1.798  0.00  0.00    -0.047 A 
ATOM      9  C9  IND d   1       1.487   2.278  -1.514  0.00  0.00    -0.096 A 
ATOM     10  HN1 IND d   1       4.394   1.933  -0.593  0.00  0.00     0.298 HD
ENDROOT
TORSDOF 0
ENDMDL
