MODEL 1
REMARK minimizedAffinity 8.89539242
REMARK minimizedRMSD -1
REMARK  0 active torsions:
REMARK  status: ('A' for Active; 'I' for Inactive)
ROOT
ATOM      1  N1  IND d   1      -2.346   5.215  -4.994  0.00  0.00    -0.196 N 
ATOM      2  C2  IND d   1      -1.144   5.231  -5.646  0.00  0.00     0.054 A 
ATOM      3  C3  IND d   1      -0.127   5.147  -4.760  0.00  0.00    -0.031 A 
ATOM      4  C4  IND d   1      -0.205   4.873  -2.201  0.00  0.00     0.051 A 
ATOM      5  C5  IND d   1      -1.075   4.844  -1.147  0.00  0.00    -0.031 A 
ATOM      6  C6  IND d   1      -2.440   4.936  -1.325  0.00  0.00     0.015 A 
ATOM      7  C7  IND d   1      -2.990   5.050  -2.571  0.00  0.00    -0.016 A 
ATOM      8  C8  IND d   1      -2.110   5.087  -3.643  0.00  0.00    -0.047 A 
ATOM      9  C9  IND d   1      -0.721   5.036  -3.465  0.00  0.00    -0.096 A 
ATOM     10  HN1 IND d   1      -3.119   5.275  -5.365  0.00  0.00     0.298 HD
ENDROOT
TORSDOF 0
ENDMDL
