MODEL 1
REMARK minimizedAffinity 17.2770004
REMARK minimizedRMSD -1
REMARK  0 active torsions:
REMARK  status: ('A' for Active; 'I' for Inactive)
ROOT
ATOM      1  N1  IND d   1      -3.868  -2.984   1.997  0.00  0.00    -0.196 N 
ATOM      2  C2  IND d   1      -4.980  -2.587   2.686  0.00  0.00     0.054 A 
ATOM      3  C3  IND d   1      -4.711  -1.480   3.415  0.00  0.00    -0.031 A 
ATOM      4  C4  IND d   1      -2.545  -0.095   3.548  0.00  0.00     0.051 A 
ATOM      5  C5  IND d   1      -1.246  -0.085   3.125  0.00  0.00    -0.031 A 
ATOM      6  C6  IND d   1      -0.744  -1.058   2.285  0.00  0.00     0.015 A 
ATOM      7  C7  IND d   1      -1.531  -2.077   1.825  0.00  0.00    -0.016 A 
ATOM      8  C8  IND d   1      -2.849  -2.094   2.259  0.00  0.00    -0.047 A 
ATOM      9  C9  IND d   1      -3.352  -1.133   3.145  0.00  0.00    -0.096 A 
ATOM     10  HN1 IND d   1      -3.814  -3.673   1.485  0.00  0.00     0.298 HD
ENDROOT
TORSDOF 0
ENDMDL
