MODEL 1
REMARK minimizedAffinity 18.1534691
REMARK minimizedRMSD -1
REMARK  0 active torsions:
REMARK  status: ('A' for Active; 'I' for Inactive)
ROOT
ATOM      1  N1  IND d   1       2.812  -4.593  -0.504  0.00  0.00    -0.196 N 
ATOM      2  C2  IND d   1       4.004  -4.159  -1.013  0.00  0.00     0.054 A 
ATOM      3  C3  IND d   1       4.345  -2.970  -0.466  0.00  0.00    -0.031 A 
ATOM      4  C4  IND d   1       3.145  -1.606   1.357  0.00  0.00     0.051 A 
ATOM      5  C5  IND d   1       2.000  -1.578   2.104  0.00  0.00    -0.031 A 
ATOM      6  C6  IND d   1       1.051  -2.575   2.020  0.00  0.00     0.015 A 
ATOM      7  C7  IND d   1       1.216  -3.648   1.191  0.00  0.00    -0.016 A 
ATOM      8  C8  IND d   1       2.373  -3.676   0.425  0.00  0.00    -0.047 A 
ATOM      9  C9  IND d   1       3.320  -2.645   0.475  0.00  0.00    -0.096 A 
ATOM     10  HN1 IND d   1       2.405  -5.316  -0.727  0.00  0.00     0.298 HD
ENDROOT
TORSDOF 0
ENDMDL
