MODEL 1
REMARK minimizedAffinity 13.3920231
REMARK minimizedRMSD -1
REMARK  0 active torsions:
REMARK  status: ('A' for Active; 'I' for Inactive)
ROOT
ATOM      1  N1  IND d   1       6.000   5.845  -2.068  0.00  0.00    -0.196 N 
ATOM      2  C2  IND d   1       5.081   5.941  -1.061  0.00  0.00     0.054 A 
ATOM      3  C3  IND d   1       3.958   5.260  -1.382  0.00  0.00    -0.031 A 
ATOM      4  C4  IND d   1       3.449   3.832  -3.463  0.00  0.00     0.051 A 
ATOM      5  C5  IND d   1       3.967   3.473  -4.675  0.00  0.00    -0.031 A 
ATOM      6  C6  IND d   1       5.215   3.892  -5.088  0.00  0.00     0.015 A 
ATOM      7  C7  IND d   1       6.000   4.681  -4.295  0.00  0.00    -0.016 A 
ATOM      8  C8  IND d   1       5.475   5.053  -3.066  0.00  0.00    -0.047 A 
ATOM      9  C9  IND d   1       4.191   4.666  -2.660  0.00  0.00    -0.096 A 
ATOM     10  HN1 IND d   1       6.775   6.216  -2.078  0.00  0.00     0.298 HD
ENDROOT
TORSDOF 0
ENDMDL
