MODEL 1
REMARK minimizedAffinity 22.6084709
REMARK minimizedRMSD -1
REMARK  0 active torsions:
REMARK  status: ('A' for Active; 'I' for Inactive)
ROOT
ATOM      1  N1  IND d   1       4.136   2.978  -3.584  0.00  0.00    -0.196 N 
ATOM      2  C2  IND d   1       4.467   3.333  -4.862  0.00  0.00     0.054 A 
ATOM      3  C3  IND d   1       5.178   4.482  -4.862  0.00  0.00    -0.031 A 
ATOM      4  C4  IND d   1       6.000   5.897  -2.875  0.00  0.00     0.051 A 
ATOM      5  C5  IND d   1       5.915   5.996  -1.514  0.00  0.00    -0.031 A 
ATOM      6  C6  IND d   1       5.221   5.073  -0.758  0.00  0.00     0.015 A 
ATOM      7  C7  IND d   1       4.593   4.006  -1.337  0.00  0.00    -0.016 A 
ATOM      8  C8  IND d   1       4.671   3.908  -2.719  0.00  0.00    -0.047 A 
ATOM      9  C9  IND d   1       5.338   4.864  -3.495  0.00  0.00    -0.096 A 
ATOM     10  HN1 IND d   1       3.671   2.291  -3.358  0.00  0.00     0.298 HD
ENDROOT
TORSDOF 0
ENDMDL
