MODEL 1
REMARK minimizedAffinity 17.491684
REMARK minimizedRMSD -1
REMARK  0 active torsions:
REMARK  status: ('A' for Active; 'I' for Inactive)
ROOT
ATOM      1  N1  IND d   1      -2.016  -5.990  -4.930  0.00  0.00    -0.196 N 
ATOM      2  C2  IND d   1      -1.165  -5.998  -6.000  0.00  0.00     0.054 A 
ATOM      3  C3  IND d   1      -0.065  -5.261  -5.731  0.00  0.00    -0.031 A 
ATOM      4  C4  IND d   1       0.595  -4.035  -3.566  0.00  0.00     0.051 A 
ATOM      5  C5  IND d   1       0.122  -3.710  -2.325  0.00  0.00    -0.031 A 
ATOM      6  C6  IND d   1      -1.111  -4.139  -1.879  0.00  0.00     0.015 A 
ATOM      7  C7  IND d   1      -1.917  -4.922  -2.657  0.00  0.00    -0.016 A 
ATOM      8  C8  IND d   1      -1.443  -5.249  -3.920  0.00  0.00    -0.047 A 
ATOM      9  C9  IND d   1      -0.210  -4.781  -4.394  0.00  0.00    -0.096 A 
ATOM     10  HN1 IND d   1      -2.781  -6.381  -4.894  0.00  0.00     0.298 HD
ENDROOT
TORSDOF 0
ENDMDL
