MODEL 1
REMARK minimizedAffinity 16.194437
REMARK minimizedRMSD -1
REMARK  0 active torsions:
REMARK  status: ('A' for Active; 'I' for Inactive)
ROOT
ATOM      1  N1  IND d   1       5.270   4.191  -1.851  0.00  0.00    -0.196 N 
ATOM      2  C2  IND d   1       5.760   5.442  -1.600  0.00  0.00     0.054 A 
ATOM      3  C3  IND d   1       5.466   5.818  -0.335  0.00  0.00    -0.031 A 
ATOM      4  C4  IND d   1       4.277   4.498   1.528  0.00  0.00     0.051 A 
ATOM      5  C5  IND d   1       3.617   3.325   1.764  0.00  0.00    -0.031 A 
ATOM      6  C6  IND d   1       3.473   2.360   0.789  0.00  0.00     0.015 A 
ATOM      7  C7  IND d   1       3.997   2.528  -0.462  0.00  0.00    -0.016 A 
ATOM      8  C8  IND d   1       4.662   3.721  -0.708  0.00  0.00    -0.047 A 
ATOM      9  C9  IND d   1       4.774   4.722   0.266  0.00  0.00    -0.096 A 
ATOM     10  HN1 IND d   1       5.331   3.769  -2.597  0.00  0.00     0.298 HD
ENDROOT
TORSDOF 0
ENDMDL
