MODEL 1
REMARK minimizedAffinity 11.3112383
REMARK minimizedRMSD -1
REMARK  0 active torsions:
REMARK  status: ('A' for Active; 'I' for Inactive)
ROOT
ATOM      1  N1  IND d   1      -6.000   0.919  -4.525  0.00  0.00    -0.196 N 
ATOM      2  C2  IND d   1      -6.000  -0.409  -4.850  0.00  0.00     0.054 A 
ATOM      3  C3  IND d   1      -5.851  -1.165  -3.739  0.00  0.00    -0.031 A 
ATOM      4  C4  IND d   1      -5.691  -0.436  -1.275  0.00  0.00     0.051 A 
ATOM      5  C5  IND d   1      -5.609   0.675  -0.483  0.00  0.00    -0.031 A 
ATOM      6  C6  IND d   1      -5.657   1.950  -1.009  0.00  0.00     0.015 A 
ATOM      7  C7  IND d   1      -5.800   2.162  -2.351  0.00  0.00    -0.016 A 
ATOM      8  C8  IND d   1      -5.877   1.036  -3.158  0.00  0.00    -0.047 A 
ATOM      9  C9  IND d   1      -5.786  -0.260  -2.635  0.00  0.00    -0.096 A 
ATOM     10  HN1 IND d   1      -6.065   1.571  -5.082  0.00  0.00     0.298 HD
ENDROOT
TORSDOF 0
ENDMDL
