MODEL 1
REMARK minimizedAffinity 14.6443071
REMARK minimizedRMSD -1
REMARK  0 active torsions:
REMARK  status: ('A' for Active; 'I' for Inactive)
ROOT
ATOM      1  N1  IND d   1      -1.167  -0.759   2.906  0.00  0.00    -0.196 N 
ATOM      2  C2  IND d   1      -1.139  -1.799   2.020  0.00  0.00     0.054 A 
ATOM      3  C3  IND d   1      -2.341  -1.935   1.416  0.00  0.00    -0.031 A 
ATOM      4  C4  IND d   1      -4.463  -0.498   1.655  0.00  0.00     0.051 A 
ATOM      5  C5  IND d   1      -4.985   0.542   2.372  0.00  0.00    -0.031 A 
ATOM      6  C6  IND d   1      -4.245   1.217   3.321  0.00  0.00     0.015 A 
ATOM      7  C7  IND d   1      -2.946   0.883   3.582  0.00  0.00    -0.016 A 
ATOM      8  C8  IND d   1      -2.415  -0.177   2.860  0.00  0.00    -0.047 A 
ATOM      9  C9  IND d   1      -3.175  -0.893   1.926  0.00  0.00    -0.096 A 
ATOM     10  HN1 IND d   1      -0.515  -0.509   3.409  0.00  0.00     0.298 HD
ENDROOT
TORSDOF 0
ENDMDL
