MODEL 1
REMARK minimizedAffinity 9.3279705
REMARK minimizedRMSD -1
REMARK  0 active torsions:
REMARK  status: ('A' for Active; 'I' for Inactive)
ROOT
ATOM      1  N1  IND d   1      -3.660  -3.084   3.504  0.00  0.00    -0.196 N 
ATOM      2  C2  IND d   1      -3.555  -3.554   2.224  0.00  0.00     0.054 A 
ATOM      3  C3  IND d   1      -4.220  -4.723   2.096  0.00  0.00    -0.031 A 
ATOM      4  C4  IND d   1      -5.637  -5.997   3.828  0.00  0.00     0.051 A 
ATOM      5  C5  IND d   1      -6.000  -5.980   5.145  0.00  0.00    -0.031 A 
ATOM      6  C6  IND d   1      -5.595  -4.974   6.000  0.00  0.00     0.015 A 
ATOM      7  C7  IND d   1      -4.819  -3.938   5.563  0.00  0.00    -0.016 A 
ATOM      8  C8  IND d   1      -4.443  -3.957   4.228  0.00  0.00    -0.047 A 
ATOM      9  C9  IND d   1      -4.815  -4.996   3.366  0.00  0.00    -0.096 A 
ATOM     10  HN1 IND d   1      -3.299  -2.365   3.806  0.00  0.00     0.298 HD
ENDROOT
TORSDOF 0
ENDMDL
