MODEL 1
REMARK minimizedAffinity -4.25902653
REMARK minimizedRMSD -1
REMARK  0 active torsions:
REMARK  status: ('A' for Active; 'I' for Inactive)
ROOT
ATOM      1  C1  DEN d   1      -1.472   1.669  -0.666  0.00  0.00     0.130 A 
ATOM      2  C2  DEN d   1      -1.661   1.021   0.629  0.00  0.00    -0.031 A 
ATOM      3  C3  DEN d   1      -0.798  -0.177   0.670  0.00  0.00     0.027 A 
ATOM      4  C4  DEN d   1       0.808  -1.082  -1.134  0.00  0.00     0.027 A 
ATOM      5  C5  DEN d   1       1.298  -0.878  -2.405  0.00  0.00    -0.003 A 
ATOM      6  C6  DEN d   1       0.878   0.162  -3.192  0.00  0.00     0.001 A 
ATOM      7  C7  DEN d   1      -0.027   1.063  -2.698  0.00  0.00     0.017 A 
ATOM      8  C8  DEN d   1      -0.532   0.860  -1.420  0.00  0.00    -0.094 A 
ATOM      9  C9  DEN d   1      -0.085  -0.190  -0.636  0.00  0.00    -0.072 A 
ENDROOT
TORSDOF 0
ENDMDL
