MODEL 1
REMARK minimizedAffinity -3.67476845
REMARK minimizedRMSD -1
REMARK  0 active torsions:
REMARK  status: ('A' for Active; 'I' for Inactive)
ROOT
ATOM      1  C1  DEN d   1      -0.321   0.138  -1.803  0.00  0.00     0.130 A 
ATOM      2  C2  DEN d   1       1.113  -0.113  -1.920  0.00  0.00    -0.031 A 
ATOM      3  C3  DEN d   1       1.653  -0.315  -0.560  0.00  0.00     0.027 A 
ATOM      4  C4  DEN d   1       0.415  -0.267   1.702  0.00  0.00     0.027 A 
ATOM      5  C5  DEN d   1      -0.807  -0.080   2.308  0.00  0.00    -0.003 A 
ATOM      6  C6  DEN d   1      -1.937   0.224   1.596  0.00  0.00     0.001 A 
ATOM      7  C7  DEN d   1      -1.877   0.306   0.230  0.00  0.00     0.017 A 
ATOM      8  C8  DEN d   1      -0.647   0.126  -0.388  0.00  0.00    -0.094 A 
ATOM      9  C9  DEN d   1       0.482  -0.193   0.348  0.00  0.00    -0.072 A 
ENDROOT
TORSDOF 0
ENDMDL
