MODEL 1
REMARK minimizedAffinity -0.682756186
REMARK minimizedRMSD -1
REMARK  0 active torsions:
REMARK  status: ('A' for Active; 'I' for Inactive)
ROOT
ATOM      1  C1  DEN d   1       0.090   1.479  -3.370  0.00  0.00     0.130 A 
ATOM      2  C2  DEN d   1       0.872   0.703  -4.329  0.00  0.00    -0.031 A 
ATOM      3  C3  DEN d   1       1.326  -0.530  -3.656  0.00  0.00     0.027 A 
ATOM      4  C4  DEN d   1       0.893  -1.312  -1.236  0.00  0.00     0.027 A 
ATOM      5  C5  DEN d   1       0.292  -0.984  -0.041  0.00  0.00    -0.003 A 
ATOM      6  C6  DEN d   1      -0.384   0.194   0.137  0.00  0.00     0.001 A 
ATOM      7  C7  DEN d   1      -0.514   1.067  -0.911  0.00  0.00     0.017 A 
ATOM      8  C8  DEN d   1       0.095   0.746  -2.117  0.00  0.00    -0.094 A 
ATOM      9  C9  DEN d   1       0.764  -0.455  -2.280  0.00  0.00    -0.072 A 
ENDROOT
TORSDOF 0
ENDMDL
