MODEL 1
REMARK minimizedAffinity -3.17745018
REMARK minimizedRMSD -1
REMARK  0 active torsions:
REMARK  status: ('A' for Active; 'I' for Inactive)
ROOT
ATOM      1  C   UNL d   1      -1.803   0.303   1.639  0.00  0.00     0.023 A 
ATOM      2  C1  UNL d   1      -2.170  -0.282   0.427  0.00  0.00     0.003 A 
ATOM      3  C2  UNL d   1      -1.279  -0.283  -0.648  0.00  0.00     0.048 A 
ATOM      4  C3  UNL d   1      -0.021   0.302  -0.503  0.00  0.00     0.023 A 
ATOM      5  C4  UNL d   1       0.351   0.888   0.708  0.00  0.00     0.048 A 
ATOM      6  C5  UNL d   1      -0.544   0.888   1.779  0.00  0.00     0.003 A 
ATOM      7  I   UNL d   1       1.308   0.301  -2.101  0.00  0.00    -0.146 I 
ENDROOT
TORSDOF 0
ENDMDL
