MODEL 1
REMARK minimizedAffinity -3.53451085
REMARK minimizedRMSD -1
REMARK  0 active torsions:
REMARK  status: ('A' for Active; 'I' for Inactive)
ROOT
ATOM      1  C   UNL d   1       0.790  -1.194  -1.094  0.00  0.00     0.023 A 
ATOM      2  C1  UNL d   1      -0.506  -0.689  -1.192  0.00  0.00     0.003 A 
ATOM      3  C2  UNL d   1      -1.016   0.130  -0.182  0.00  0.00     0.048 A 
ATOM      4  C3  UNL d   1      -0.223   0.441   0.922  0.00  0.00     0.023 A 
ATOM      5  C4  UNL d   1       1.075  -0.061   1.024  0.00  0.00     0.048 A 
ATOM      6  C5  UNL d   1       1.580  -0.880   0.012  0.00  0.00     0.003 A 
ATOM      7  I   UNL d   1      -0.980   1.661   2.426  0.00  0.00    -0.146 I 
ENDROOT
TORSDOF 0
ENDMDL
