MODEL 1
REMARK minimizedAffinity -2.53190804
REMARK minimizedRMSD -1
REMARK  0 active torsions:
REMARK  status: ('A' for Active; 'I' for Inactive)
ROOT
ATOM      1  C   UNL d   1      -0.992   0.956   2.121  0.00  0.00     0.023 A 
ATOM      2  C1  UNL d   1      -1.832   0.400   1.156  0.00  0.00     0.003 A 
ATOM      3  C2  UNL d   1      -1.291  -0.154  -0.006  0.00  0.00     0.048 A 
ATOM      4  C3  UNL d   1       0.090  -0.149  -0.197  0.00  0.00     0.023 A 
ATOM      5  C4  UNL d   1       0.934   0.405   0.766  0.00  0.00     0.048 A 
ATOM      6  C5  UNL d   1       0.389   0.959   1.927  0.00  0.00     0.003 A 
ATOM      7  I   UNL d   1       0.897  -0.973  -1.926  0.00  0.00    -0.146 I 
ENDROOT
TORSDOF 0
ENDMDL
