MODEL 1
REMARK minimizedAffinity -0.148167223
REMARK minimizedRMSD -1
REMARK  0 active torsions:
REMARK  status: ('A' for Active; 'I' for Inactive)
ROOT
ATOM      1  C   UNL d   1       0.414  -0.881  -1.288  0.00  0.00     0.023 A 
ATOM      2  C1  UNL d   1       1.366  -0.512  -0.337  0.00  0.00     0.003 A 
ATOM      3  C2  UNL d   1       0.983   0.217   0.790  0.00  0.00     0.048 A 
ATOM      4  C3  UNL d   1      -0.354   0.574   0.961  0.00  0.00     0.023 A 
ATOM      5  C4  UNL d   1      -1.310   0.207   0.013  0.00  0.00     0.048 A 
ATOM      6  C5  UNL d   1      -0.923  -0.522  -1.113  0.00  0.00     0.003 A 
ATOM      7  I   UNL d   1      -0.926   1.660   2.639  0.00  0.00    -0.146 I 
ENDROOT
TORSDOF 0
ENDMDL
