MODEL 1
REMARK minimizedAffinity -3.16968584
REMARK minimizedRMSD -1
REMARK  0 active torsions:
REMARK  status: ('A' for Active; 'I' for Inactive)
ROOT
ATOM      1  C   UNL d   1      -1.546   1.120   2.353  0.00  0.00     0.023 A 
ATOM      2  C1  UNL d   1      -0.315   1.730   2.107  0.00  0.00     0.003 A 
ATOM      3  C2  UNL d   1       0.369   1.469   0.918  0.00  0.00     0.048 A 
ATOM      4  C3  UNL d   1      -0.183   0.599  -0.021  0.00  0.00     0.023 A 
ATOM      5  C4  UNL d   1      -1.414  -0.013   0.221  0.00  0.00     0.048 A 
ATOM      6  C5  UNL d   1      -2.095   0.250   1.411  0.00  0.00     0.003 A 
ATOM      7  I   UNL d   1       0.833   0.210  -1.791  0.00  0.00    -0.146 I 
ENDROOT
TORSDOF 0
ENDMDL
