MODEL 1
REMARK minimizedAffinity -3.6621542
REMARK minimizedRMSD -1
REMARK  0 active torsions:
REMARK  status: ('A' for Active; 'I' for Inactive)
ROOT
ATOM      1  C   UNL d   1      -1.237   0.888   2.254  0.00  0.00     0.023 A 
ATOM      2  C1  UNL d   1      -2.074   0.756   1.147  0.00  0.00     0.003 A 
ATOM      3  C2  UNL d   1      -1.534   0.473  -0.109  0.00  0.00     0.048 A 
ATOM      4  C3  UNL d   1      -0.155   0.321  -0.250  0.00  0.00     0.023 A 
ATOM      5  C4  UNL d   1       0.687   0.450   0.856  0.00  0.00     0.048 A 
ATOM      6  C5  UNL d   1       0.142   0.735   2.109  0.00  0.00     0.003 A 
ATOM      7  I   UNL d   1       0.652  -0.102  -2.118  0.00  0.00    -0.146 I 
ENDROOT
TORSDOF 0
ENDMDL
