MODEL 1
REMARK minimizedAffinity 2.04557347
REMARK minimizedRMSD -1
REMARK  0 active torsions:
REMARK  status: ('A' for Active; 'I' for Inactive)
ROOT
ATOM      1  C   UNL d   1       0.871  -0.822  -1.117  0.00  0.00     0.023 A 
ATOM      2  C1  UNL d   1      -0.421  -0.299  -1.191  0.00  0.00     0.003 A 
ATOM      3  C2  UNL d   1      -1.015   0.257  -0.056  0.00  0.00     0.048 A 
ATOM      4  C3  UNL d   1      -0.313   0.288   1.148  0.00  0.00     0.023 A 
ATOM      5  C4  UNL d   1       0.980  -0.233   1.226  0.00  0.00     0.048 A 
ATOM      6  C5  UNL d   1       1.570  -0.789   0.089  0.00  0.00     0.003 A 
ATOM      7  I   UNL d   1      -1.196   1.115   2.838  0.00  0.00    -0.146 I 
ENDROOT
TORSDOF 0
ENDMDL
