MODEL 1
REMARK minimizedAffinity -2.18101144
REMARK minimizedRMSD -1
REMARK  0 active torsions:
REMARK  status: ('A' for Active; 'I' for Inactive)
ROOT
ATOM      1  C   UNL d   1      -1.269   1.529   2.630  0.00  0.00     0.023 A 
ATOM      2  C1  UNL d   1      -0.058   2.102   2.241  0.00  0.00     0.003 A 
ATOM      3  C2  UNL d   1       0.498   1.787   1.000  0.00  0.00     0.048 A 
ATOM      4  C3  UNL d   1      -0.163   0.899   0.152  0.00  0.00     0.023 A 
ATOM      5  C4  UNL d   1      -1.375   0.324   0.536  0.00  0.00     0.048 A 
ATOM      6  C5  UNL d   1      -1.927   0.642   1.779  0.00  0.00     0.003 A 
ATOM      7  I   UNL d   1       0.662   0.428  -1.697  0.00  0.00    -0.146 I 
ENDROOT
TORSDOF 0
ENDMDL
