MODEL 1
REMARK minimizedAffinity 10.5022373
REMARK minimizedRMSD -1
REMARK  0 active torsions:
REMARK  status: ('A' for Active; 'I' for Inactive)
ROOT
ATOM      1  O1  BZF d   1      -5.297   2.349   3.811  0.00  0.00    -0.204 OA
ATOM      2  C2  BZF d   1      -5.668   2.764   5.076  0.00  0.00     0.174 A 
ATOM      3  C3  BZF d   1      -4.785   2.331   5.999  0.00  0.00    -0.012 A 
ATOM      4  C3A BZF d   1      -3.751   1.679   5.254  0.00  0.00    -0.107 A 
ATOM      5  C4  BZF d   1      -2.588   1.058   5.609  0.00  0.00     0.055 A 
ATOM      6  C5  BZF d   1      -1.839   0.460   4.646  0.00  0.00    -0.016 A 
ATOM      7  C6  BZF d   1      -2.225   0.459   3.321  0.00  0.00     0.022 A 
ATOM      8  C7  BZF d   1      -3.368   1.067   2.921  0.00  0.00     0.029 A 
ATOM      9  C7A BZF d   1      -4.110   1.701   3.887  0.00  0.00     0.058 A 
ENDROOT
TORSDOF 0
ENDMDL
