MODEL 1
REMARK minimizedAffinity 5.93487501
REMARK minimizedRMSD -1
REMARK  0 active torsions:
REMARK  status: ('A' for Active; 'I' for Inactive)
ROOT
ATOM      1  O1  BZF d   1      -1.964   0.710   4.570  0.00  0.00    -0.204 OA
ATOM      2  C2  BZF d   1      -2.882   1.487   3.890  0.00  0.00     0.174 A 
ATOM      3  C3  BZF d   1      -2.954   1.119   2.595  0.00  0.00    -0.012 A 
ATOM      4  C3A BZF d   1      -2.091  -0.016   2.477  0.00  0.00    -0.107 A 
ATOM      5  C4  BZF d   1      -1.753  -0.835   1.438  0.00  0.00     0.055 A 
ATOM      6  C5  BZF d   1      -0.825  -1.808   1.639  0.00  0.00    -0.016 A 
ATOM      7  C6  BZF d   1      -0.212  -1.985   2.861  0.00  0.00     0.022 A 
ATOM      8  C7  BZF d   1      -0.518  -1.200   3.923  0.00  0.00     0.029 A 
ATOM      9  C7A BZF d   1      -1.479  -0.238   3.733  0.00  0.00     0.058 A 
ENDROOT
TORSDOF 0
ENDMDL
