MODEL 1
REMARK minimizedAffinity 7.79649925
REMARK minimizedRMSD -1
REMARK  0 active torsions:
REMARK  status: ('A' for Active; 'I' for Inactive)
ROOT
ATOM      1  O1  BZF d   1      -0.057  -3.764   1.547  0.00  0.00    -0.204 OA
ATOM      2  C2  BZF d   1       1.161  -3.248   1.945  0.00  0.00     0.174 A 
ATOM      3  C3  BZF d   1       1.050  -1.939   2.249  0.00  0.00    -0.012 A 
ATOM      4  C3A BZF d   1      -0.343  -1.638   2.117  0.00  0.00    -0.107 A 
ATOM      5  C4  BZF d   1      -1.080  -0.504   2.301  0.00  0.00     0.055 A 
ATOM      6  C5  BZF d   1      -2.409  -0.527   2.016  0.00  0.00    -0.016 A 
ATOM      7  C6  BZF d   1      -3.031  -1.663   1.541  0.00  0.00     0.022 A 
ATOM      8  C7  BZF d   1      -2.341  -2.813   1.347  0.00  0.00     0.029 A 
ATOM      9  C7A BZF d   1      -1.005  -2.803   1.665  0.00  0.00     0.058 A 
ENDROOT
TORSDOF 0
ENDMDL
