MODEL 1
REMARK minimizedAffinity 5.22070169
REMARK minimizedRMSD -1
REMARK  0 active torsions:
REMARK  status: ('A' for Active; 'I' for Inactive)
ROOT
ATOM      1  O1  BZF d   1      -5.753   2.126   4.189  0.00  0.00    -0.204 OA
ATOM      2  C2  BZF d   1      -5.565   2.609   5.469  0.00  0.00     0.174 A 
ATOM      3  C3  BZF d   1      -4.349   2.262   5.939  0.00  0.00    -0.012 A 
ATOM      4  C3A BZF d   1      -3.703   1.593   4.851  0.00  0.00    -0.107 A 
ATOM      5  C4  BZF d   1      -2.470   1.028   4.696  0.00  0.00     0.055 A 
ATOM      6  C5  BZF d   1      -2.177   0.391   3.532  0.00  0.00    -0.016 A 
ATOM      7  C6  BZF d   1      -3.094   0.295   2.506  0.00  0.00     0.022 A 
ATOM      8  C7  BZF d   1      -4.328   0.843   2.612  0.00  0.00     0.029 A 
ATOM      9  C7A BZF d   1      -4.616   1.517   3.774  0.00  0.00     0.058 A 
ENDROOT
TORSDOF 0
ENDMDL
