MODEL 1
REMARK minimizedAffinity 12.5425739
REMARK minimizedRMSD -1
REMARK  0 active torsions:
REMARK  status: ('A' for Active; 'I' for Inactive)
ROOT
ATOM      1  O1  BZF d   1      -1.918   0.887   4.195  0.00  0.00    -0.204 OA
ATOM      2  C2  BZF d   1      -1.693   0.183   3.028  0.00  0.00     0.174 A 
ATOM      3  C3  BZF d   1      -2.836   0.044   2.326  0.00  0.00    -0.012 A 
ATOM      4  C3A BZF d   1      -3.820   0.780   3.058  0.00  0.00    -0.107 A 
ATOM      5  C4  BZF d   1      -5.148   1.030   2.858  0.00  0.00     0.055 A 
ATOM      6  C5  BZF d   1      -5.839   1.724   3.800  0.00  0.00    -0.016 A 
ATOM      7  C6  BZF d   1      -5.236   2.178   4.954  0.00  0.00     0.022 A 
ATOM      8  C7  BZF d   1      -3.921   1.959   5.195  0.00  0.00     0.029 A 
ATOM      9  C7A BZF d   1      -3.212   1.287   4.230  0.00  0.00     0.058 A 
ENDROOT
TORSDOF 0
ENDMDL
