MODEL 1
REMARK minimizedAffinity 11.4306669
REMARK minimizedRMSD -1
REMARK  0 active torsions:
REMARK  status: ('A' for Active; 'I' for Inactive)
ROOT
ATOM      1  O1  BZF d   1      -6.000   0.665  -2.355  0.00  0.00    -0.204 OA
ATOM      2  C2  BZF d   1      -5.823  -0.699  -2.221  0.00  0.00     0.174 A 
ATOM      3  C3  BZF d   1      -5.564  -1.023  -0.937  0.00  0.00    -0.012 A 
ATOM      4  C3A BZF d   1      -5.673   0.204  -0.210  0.00  0.00    -0.107 A 
ATOM      5  C4  BZF d   1      -5.541   0.528   1.110  0.00  0.00     0.055 A 
ATOM      6  C5  BZF d   1      -5.636   1.831   1.483  0.00  0.00    -0.016 A 
ATOM      7  C6  BZF d   1      -5.857   2.835   0.564  0.00  0.00     0.022 A 
ATOM      8  C7  BZF d   1      -6.000   2.563  -0.756  0.00  0.00     0.029 A 
ATOM      9  C7A BZF d   1      -5.937   1.243  -1.132  0.00  0.00     0.058 A 
ENDROOT
TORSDOF 0
ENDMDL
