MODEL 1
REMARK minimizedAffinity 14.9659624
REMARK minimizedRMSD -1
REMARK  0 active torsions:
REMARK  status: ('A' for Active; 'I' for Inactive)
ROOT
ATOM      1  O1  BZF d   1      -4.051   2.016   4.880  0.00  0.00    -0.204 OA
ATOM      2  C2  BZF d   1      -5.410   2.262   4.880  0.00  0.00     0.174 A 
ATOM      3  C3  BZF d   1      -6.000   1.688   3.811  0.00  0.00    -0.012 A 
ATOM      4  C3A BZF d   1      -4.958   0.966   3.149  0.00  0.00    -0.107 A 
ATOM      5  C4  BZF d   1      -4.923   0.180   2.033  0.00  0.00     0.055 A 
ATOM      6  C5  BZF d   1      -3.730  -0.319   1.613  0.00  0.00    -0.016 A 
ATOM      7  C6  BZF d   1      -2.554  -0.046   2.280  0.00  0.00     0.022 A 
ATOM      8  C7  BZF d   1      -2.539   0.725   3.395  0.00  0.00     0.029 A 
ATOM      9  C7A BZF d   1      -3.747   1.202   3.841  0.00  0.00     0.058 A 
ENDROOT
TORSDOF 0
ENDMDL
