MODEL 1
REMARK minimizedAffinity 13.1200066
REMARK minimizedRMSD -1
REMARK  0 active torsions:
REMARK  status: ('A' for Active; 'I' for Inactive)
ROOT
ATOM      1  O1  BZF d   1      -0.658  -0.243   3.556  0.00  0.00    -0.204 OA
ATOM      2  C2  BZF d   1      -0.962  -0.693   2.286  0.00  0.00     0.174 A 
ATOM      3  C3  BZF d   1      -2.182  -0.262   1.905  0.00  0.00    -0.012 A 
ATOM      4  C3A BZF d   1      -2.632   0.582   2.969  0.00  0.00    -0.107 A 
ATOM      5  C4  BZF d   1      -3.766   1.316   3.170  0.00  0.00     0.055 A 
ATOM      6  C5  BZF d   1      -3.928   1.972   4.349  0.00  0.00    -0.016 A 
ATOM      7  C6  BZF d   1      -2.981   1.911   5.350  0.00  0.00     0.022 A 
ATOM      8  C7  BZF d   1      -1.838   1.200   5.195  0.00  0.00     0.029 A 
ATOM      9  C7A BZF d   1      -1.656   0.563   3.992  0.00  0.00     0.058 A 
ENDROOT
TORSDOF 0
ENDMDL
