MODEL 1
REMARK minimizedAffinity 8.1297226
REMARK minimizedRMSD -1
REMARK  0 active torsions:
REMARK  status: ('A' for Active; 'I' for Inactive)
ROOT
ATOM      1  O1  BZF d   1      -2.468   0.634   3.315  0.00  0.00    -0.204 OA
ATOM      2  C2  BZF d   1      -1.572   0.730   4.362  0.00  0.00     0.174 A 
ATOM      3  C3  BZF d   1      -2.141   1.336   5.424  0.00  0.00    -0.012 A 
ATOM      4  C3A BZF d   1      -3.504   1.554   5.048  0.00  0.00    -0.107 A 
ATOM      5  C4  BZF d   1      -4.578   2.104   5.687  0.00  0.00     0.055 A 
ATOM      6  C5  BZF d   1      -5.752   2.234   5.014  0.00  0.00    -0.016 A 
ATOM      7  C6  BZF d   1      -5.885   1.830   3.702  0.00  0.00     0.022 A 
ATOM      8  C7  BZF d   1      -4.849   1.274   3.028  0.00  0.00     0.029 A 
ATOM      9  C7A BZF d   1      -3.671   1.111   3.715  0.00  0.00     0.058 A 
ENDROOT
TORSDOF 0
ENDMDL
