MODEL 1
REMARK minimizedAffinity 12.9346228
REMARK minimizedRMSD -1
REMARK  0 active torsions:
REMARK  status: ('A' for Active; 'I' for Inactive)
ROOT
ATOM      1  O1  BZF d   1      -5.199   2.128   3.992  0.00  0.00    -0.204 OA
ATOM      2  C2  BZF d   1      -5.294   2.648   5.268  0.00  0.00     0.174 A 
ATOM      3  C3  BZF d   1      -4.209   2.321   6.000  0.00  0.00    -0.012 A 
ATOM      4  C3A BZF d   1      -3.343   1.626   5.098  0.00  0.00    -0.107 A 
ATOM      5  C4  BZF d   1      -2.105   1.065   5.230  0.00  0.00     0.055 A 
ATOM      6  C5  BZF d   1      -1.566   0.397   4.176  0.00  0.00    -0.016 A 
ATOM      7  C6  BZF d   1      -2.239   0.267   2.979  0.00  0.00     0.022 A 
ATOM      8  C7  BZF d   1      -3.467   0.811   2.798  0.00  0.00     0.029 A 
ATOM      9  C7A BZF d   1      -4.000   1.514   3.850  0.00  0.00     0.058 A 
ENDROOT
TORSDOF 0
ENDMDL
