MODEL 1
REMARK minimizedAffinity 11.0007296
REMARK minimizedRMSD -1
REMARK  0 active torsions:
REMARK  status: ('A' for Active; 'I' for Inactive)
ROOT
ATOM      1  O1  BZF d   1       2.649  -5.627   0.466  0.00  0.00    -0.204 OA
ATOM      2  C2  BZF d   1       1.893  -4.498   0.718  0.00  0.00     0.174 A 
ATOM      3  C3  BZF d   1       2.589  -3.381   0.423  0.00  0.00    -0.012 A 
ATOM      4  C3A BZF d   1       3.826  -3.843  -0.128  0.00  0.00    -0.107 A 
ATOM      5  C4  BZF d   1       4.928  -3.207  -0.624  0.00  0.00     0.055 A 
ATOM      6  C5  BZF d   1       5.997  -3.948  -1.018  0.00  0.00    -0.016 A 
ATOM      7  C6  BZF d   1       6.000  -5.324  -0.925  0.00  0.00     0.022 A 
ATOM      8  C7  BZF d   1       4.928  -6.000  -0.445  0.00  0.00     0.029 A 
ATOM      9  C7A BZF d   1       3.834  -5.256  -0.077  0.00  0.00     0.058 A 
ENDROOT
TORSDOF 0
ENDMDL
