MODEL 1
REMARK minimizedAffinity 5.95891857
REMARK minimizedRMSD -1
REMARK  0 active torsions:
REMARK  status: ('A' for Active; 'I' for Inactive)
ROOT
ATOM      1  O1  BZF d   1       0.966  -1.486   4.490  0.00  0.00    -0.204 OA
ATOM      2  C2  BZF d   1       1.264  -1.886   3.201  0.00  0.00     0.174 A 
ATOM      3  C3  BZF d   1       0.473  -1.254   2.310  0.00  0.00    -0.012 A 
ATOM      4  C3A BZF d   1      -0.309  -0.338   3.083  0.00  0.00    -0.107 A 
ATOM      5  C4  BZF d   1      -1.266   0.581   2.763  0.00  0.00     0.055 A 
ATOM      6  C5  BZF d   1      -1.887   1.263   3.761  0.00  0.00    -0.016 A 
ATOM      7  C6  BZF d   1      -1.580   1.047   5.088  0.00  0.00     0.022 A 
ATOM      8  C7  BZF d   1      -0.633   0.148   5.455  0.00  0.00     0.029 A 
ATOM      9  C7A BZF d   1       0.019  -0.518   4.446  0.00  0.00     0.058 A 
ENDROOT
TORSDOF 0
ENDMDL
