MODEL 1
REMARK minimizedAffinity 14.0689545
REMARK minimizedRMSD -1
REMARK  0 active torsions:
REMARK  status: ('A' for Active; 'I' for Inactive)
ROOT
ATOM      1  O1  BZF d   1       5.015   5.996  -1.488  0.00  0.00    -0.204 OA
ATOM      2  C2  BZF d   1       5.992   5.021  -1.536  0.00  0.00     0.174 A 
ATOM      3  C3  BZF d   1       5.458   3.824  -1.853  0.00  0.00    -0.012 A 
ATOM      4  C3A BZF d   1       4.074   4.084  -2.103  0.00  0.00    -0.107 A 
ATOM      5  C4  BZF d   1       3.023   3.295  -2.477  0.00  0.00     0.055 A 
ATOM      6  C5  BZF d   1       1.784   3.845  -2.565  0.00  0.00    -0.016 A 
ATOM      7  C6  BZF d   1       1.558   5.176  -2.282  0.00  0.00     0.022 A 
ATOM      8  C7  BZF d   1       2.569   5.999  -1.913  0.00  0.00     0.029 A 
ATOM      9  C7A BZF d   1       3.829   5.454  -1.855  0.00  0.00     0.058 A 
ENDROOT
TORSDOF 0
ENDMDL
