MODEL 1
REMARK minimizedAffinity 22.4299259
REMARK minimizedRMSD -1
REMARK  0 active torsions:
REMARK  status: ('A' for Active; 'I' for Inactive)
ROOT
ATOM      1  O1  BZF d   1      -5.041   2.249   3.896  0.00  0.00    -0.204 OA
ATOM      2  C2  BZF d   1      -5.248   2.654   5.200  0.00  0.00     0.174 A 
ATOM      3  C3  BZF d   1      -4.252   2.221   5.999  0.00  0.00    -0.012 A 
ATOM      4  C3A BZF d   1      -3.320   1.579   5.124  0.00  0.00    -0.107 A 
ATOM      5  C4  BZF d   1      -2.118   0.962   5.323  0.00  0.00     0.055 A 
ATOM      6  C5  BZF d   1      -1.496   0.373   4.268  0.00  0.00    -0.016 A 
ATOM      7  C6  BZF d   1      -2.048   0.377   3.004  0.00  0.00     0.022 A 
ATOM      8  C7  BZF d   1      -3.236   0.981   2.757  0.00  0.00     0.029 A 
ATOM      9  C7A BZF d   1      -3.852   1.606   3.814  0.00  0.00     0.058 A 
ENDROOT
TORSDOF 0
ENDMDL
