MODEL 1
REMARK minimizedAffinity 10.6450281
REMARK minimizedRMSD -1
REMARK  0 active torsions:
REMARK  status: ('A' for Active; 'I' for Inactive)
ROOT
ATOM      1  O1  BZF d   1       0.945  -6.000  -5.387  0.00  0.00    -0.204 OA
ATOM      2  C2  BZF d   1       1.877  -5.578  -4.460  0.00  0.00     0.174 A 
ATOM      3  C3  BZF d   1       1.271  -5.025  -3.389  0.00  0.00    -0.012 A 
ATOM      4  C3A BZF d   1      -0.131  -5.190  -3.624  0.00  0.00    -0.107 A 
ATOM      5  C4  BZF d   1      -1.247  -4.858  -2.911  0.00  0.00     0.055 A 
ATOM      6  C5  BZF d   1      -2.471  -5.092  -3.454  0.00  0.00    -0.016 A 
ATOM      7  C6  BZF d   1      -2.615  -5.650  -4.707  0.00  0.00     0.022 A 
ATOM      8  C7  BZF d   1      -1.537  -6.000  -5.450  0.00  0.00     0.029 A 
ATOM      9  C7A BZF d   1      -0.299  -5.795  -4.890  0.00  0.00     0.058 A 
ENDROOT
TORSDOF 0
ENDMDL
