MODEL 1
REMARK minimizedAffinity 7.82863092
REMARK minimizedRMSD -1
REMARK  0 active torsions:
REMARK  status: ('A' for Active; 'I' for Inactive)
ROOT
ATOM      1  O1  BZF d   1       0.284  -3.173   2.939  0.00  0.00    -0.204 OA
ATOM      2  C2  BZF d   1      -0.263  -3.293   1.676  0.00  0.00     0.174 A 
ATOM      3  C3  BZF d   1      -0.923  -2.168   1.332  0.00  0.00    -0.012 A 
ATOM      4  C3A BZF d   1      -0.701  -1.256   2.412  0.00  0.00    -0.107 A 
ATOM      5  C4  BZF d   1      -1.088   0.032   2.647  0.00  0.00     0.055 A 
ATOM      6  C5  BZF d   1      -0.766   0.612   3.833  0.00  0.00    -0.016 A 
ATOM      7  C6  BZF d   1      -0.063  -0.067   4.806  0.00  0.00     0.022 A 
ATOM      8  C7  BZF d   1       0.347  -1.345   4.617  0.00  0.00     0.029 A 
ATOM      9  C7A BZF d   1       0.051  -1.923   3.406  0.00  0.00     0.058 A 
ENDROOT
TORSDOF 0
ENDMDL
