MODEL 1
REMARK minimizedAffinity 4.65926218
REMARK minimizedRMSD -1
REMARK  0 active torsions:
REMARK  status: ('A' for Active; 'I' for Inactive)
ROOT
ATOM      1  O1  BZF d   1      -2.071  -6.000  -5.111  0.00  0.00    -0.204 OA
ATOM      2  C2  BZF d   1      -3.247  -6.000  -4.386  0.00  0.00     0.174 A 
ATOM      3  C3  BZF d   1      -3.003  -5.782  -3.077  0.00  0.00    -0.012 A 
ATOM      4  C3A BZF d   1      -1.594  -5.546  -2.992  0.00  0.00    -0.107 A 
ATOM      5  C4  BZF d   1      -0.752  -5.255  -1.957  0.00  0.00     0.055 A 
ATOM      6  C5  BZF d   1       0.582  -5.156  -2.199  0.00  0.00    -0.016 A 
ATOM      7  C6  BZF d   1       1.107  -5.347  -3.460  0.00  0.00     0.022 A 
ATOM      8  C7  BZF d   1       0.311  -5.632  -4.519  0.00  0.00     0.029 A 
ATOM      9  C7A BZF d   1      -1.041  -5.700  -4.284  0.00  0.00     0.058 A 
ENDROOT
TORSDOF 0
ENDMDL
