MODEL 1
REMARK minimizedAffinity 9.07100296
REMARK minimizedRMSD -1
REMARK  0 active torsions:
REMARK  status: ('A' for Active; 'I' for Inactive)
ROOT
ATOM      1  O1  BZF d   1       1.330  -0.710   4.233  0.00  0.00    -0.204 OA
ATOM      2  C2  BZF d   1       2.022  -1.610   3.445  0.00  0.00     0.174 A 
ATOM      3  C3  BZF d   1       1.341  -1.877   2.312  0.00  0.00    -0.012 A 
ATOM      4  C3A BZF d   1       0.192  -1.025   2.354  0.00  0.00    -0.107 A 
ATOM      5  C4  BZF d   1      -0.857  -0.820   1.504  0.00  0.00     0.055 A 
ATOM      6  C5  BZF d   1      -1.851   0.029   1.874  0.00  0.00    -0.016 A 
ATOM      7  C6  BZF d   1      -1.832   0.685   3.087  0.00  0.00     0.022 A 
ATOM      8  C7  BZF d   1      -0.811   0.517   3.962  0.00  0.00     0.029 A 
ATOM      9  C7A BZF d   1       0.212  -0.315   3.577  0.00  0.00     0.058 A 
ENDROOT
TORSDOF 0
ENDMDL
