MODEL 1
REMARK minimizedAffinity 15.1260366
REMARK minimizedRMSD -1
REMARK  0 active torsions:
REMARK  status: ('A' for Active; 'I' for Inactive)
ROOT
ATOM      1  O1  BZF d   1      -1.127   0.996   4.328  0.00  0.00    -0.204 OA
ATOM      2  C2  BZF d   1      -2.435   1.301   4.650  0.00  0.00     0.174 A 
ATOM      3  C3  BZF d   1      -3.286   0.776   3.745  0.00  0.00    -0.012 A 
ATOM      4  C3A BZF d   1      -2.464   0.022   2.849  0.00  0.00    -0.107 A 
ATOM      5  C4  BZF d   1      -2.730  -0.743   1.750  0.00  0.00     0.055 A 
ATOM      6  C5  BZF d   1      -1.695  -1.285   1.056  0.00  0.00    -0.016 A 
ATOM      7  C6  BZF d   1      -0.383  -1.078   1.429  0.00  0.00     0.022 A 
ATOM      8  C7  BZF d   1      -0.070  -0.331   2.516  0.00  0.00     0.029 A 
ATOM      9  C7A BZF d   1      -1.115   0.190   3.238  0.00  0.00     0.058 A 
ENDROOT
TORSDOF 0
ENDMDL
