MODEL 1
REMARK minimizedAffinity -3.45536685
REMARK minimizedRMSD -1
REMARK  0 active torsions:
REMARK  status: ('A' for Active; 'I' for Inactive)
ROOT
ATOM      1  C   UNL d   1       1.019   1.369   2.368  0.00  0.00     0.078 C 
ATOM      2  C1  UNL d   1      -0.074   1.277   1.346  0.00  0.00    -0.077 A 
ATOM      3  C2  UNL d   1      -1.365   1.740   1.628  0.00  0.00    -0.001 A 
ATOM      4  C3  UNL d   1      -2.376   1.638   0.670  0.00  0.00     0.003 A 
ATOM      5  C4  UNL d   1      -2.106   1.073  -0.574  0.00  0.00    -0.005 A 
ATOM      6  C5  UNL d   1      -0.825   0.608  -0.863  0.00  0.00     0.003 A 
ATOM      7  C6  UNL d   1       0.187   0.708   0.093  0.00  0.00    -0.001 A 
ENDROOT
TORSDOF 0
ENDMDL
