MODEL 1
REMARK minimizedAffinity 2.57342076
REMARK minimizedRMSD -1
REMARK  0 active torsions:
REMARK  status: ('A' for Active; 'I' for Inactive)
ROOT
ATOM      1  C   UNL d   1      -3.811   4.547  -2.302  0.00  0.00     0.078 C 
ATOM      2  C1  UNL d   1      -4.565   4.672  -3.592  0.00  0.00    -0.077 A 
ATOM      3  C2  UNL d   1      -4.643   5.896  -4.267  0.00  0.00    -0.001 A 
ATOM      4  C3  UNL d   1      -5.357   5.999  -5.462  0.00  0.00     0.003 A 
ATOM      5  C4  UNL d   1      -5.999   4.882  -5.992  0.00  0.00    -0.005 A 
ATOM      6  C5  UNL d   1      -5.929   3.660  -5.326  0.00  0.00     0.003 A 
ATOM      7  C6  UNL d   1      -5.216   3.555  -4.131  0.00  0.00    -0.001 A 
ENDROOT
TORSDOF 0
ENDMDL
