MODEL 1
REMARK minimizedAffinity 7.96511316
REMARK minimizedRMSD -1
REMARK  0 active torsions:
REMARK  status: ('A' for Active; 'I' for Inactive)
ROOT
ATOM      1  C   UNL d   1       1.593  -1.728  -0.635  0.00  0.00     0.078 C 
ATOM      2  C1  UNL d   1       1.109  -0.916   0.529  0.00  0.00    -0.077 A 
ATOM      3  C2  UNL d   1      -0.104  -0.219   0.467  0.00  0.00    -0.001 A 
ATOM      4  C3  UNL d   1      -0.538   0.541   1.554  0.00  0.00     0.003 A 
ATOM      5  C4  UNL d   1       0.236   0.612   2.711  0.00  0.00    -0.005 A 
ATOM      6  C5  UNL d   1       1.445  -0.076   2.781  0.00  0.00     0.003 A 
ATOM      7  C6  UNL d   1       1.881  -0.836   1.695  0.00  0.00    -0.001 A 
ENDROOT
TORSDOF 0
ENDMDL
