MODEL 1
REMARK minimizedAffinity -0.795646429
REMARK minimizedRMSD -1
REMARK  0 active torsions:
REMARK  status: ('A' for Active; 'I' for Inactive)
ROOT
ATOM      1  C   UNL d   1      -0.106   1.147  -1.216  0.00  0.00     0.078 C 
ATOM      2  C1  UNL d   1       0.191   0.707   0.186  0.00  0.00    -0.077 A 
ATOM      3  C2  UNL d   1       0.753  -0.549   0.445  0.00  0.00    -0.001 A 
ATOM      4  C3  UNL d   1       1.015  -0.949   1.756  0.00  0.00     0.003 A 
ATOM      5  C4  UNL d   1       0.717  -0.099   2.820  0.00  0.00    -0.005 A 
ATOM      6  C5  UNL d   1       0.155   1.152   2.572  0.00  0.00     0.003 A 
ATOM      7  C6  UNL d   1      -0.107   1.554   1.262  0.00  0.00    -0.001 A 
ENDROOT
TORSDOF 0
ENDMDL
