MODEL 1
REMARK minimizedAffinity 10.5768518
REMARK minimizedRMSD -1
REMARK  0 active torsions:
REMARK  status: ('A' for Active; 'I' for Inactive)
ROOT
ATOM      1  C   UNL d   1       1.509   2.047   1.829  0.00  0.00     0.078 C 
ATOM      2  C1  UNL d   1       0.341   2.021   0.888  0.00  0.00    -0.077 A 
ATOM      3  C2  UNL d   1      -0.903   2.540   1.268  0.00  0.00    -0.001 A 
ATOM      4  C3  UNL d   1      -1.983   2.500   0.386  0.00  0.00     0.003 A 
ATOM      5  C4  UNL d   1      -1.831   1.940  -0.882  0.00  0.00    -0.005 A 
ATOM      6  C5  UNL d   1      -0.598   1.420  -1.268  0.00  0.00     0.003 A 
ATOM      7  C6  UNL d   1       0.484   1.459  -0.386  0.00  0.00    -0.001 A 
ENDROOT
TORSDOF 0
ENDMDL
