MODEL 1
REMARK minimizedAffinity 5.66430807
REMARK minimizedRMSD -1
REMARK  0 active torsions:
REMARK  status: ('A' for Active; 'I' for Inactive)
ROOT
ATOM      1  C   UNL d   1      -3.711  -0.949  -1.421  0.00  0.00     0.078 C 
ATOM      2  C1  UNL d   1      -2.393  -0.233  -1.450  0.00  0.00    -0.077 A 
ATOM      3  C2  UNL d   1      -1.187  -0.939  -1.358  0.00  0.00    -0.001 A 
ATOM      4  C3  UNL d   1       0.032  -0.259  -1.376  0.00  0.00     0.003 A 
ATOM      5  C4  UNL d   1       0.057   1.130  -1.485  0.00  0.00    -0.005 A 
ATOM      6  C5  UNL d   1      -1.138   1.841  -1.575  0.00  0.00     0.003 A 
ATOM      7  C6  UNL d   1      -2.358   1.163  -1.557  0.00  0.00    -0.001 A 
ENDROOT
TORSDOF 0
ENDMDL
