MODEL 1
REMARK minimizedAffinity 6.37240314
REMARK minimizedRMSD -1
REMARK  0 active torsions:
REMARK  status: ('A' for Active; 'I' for Inactive)
ROOT
ATOM      1  C   UNL d   1       3.184  -1.567  -1.123  0.00  0.00     0.078 C 
ATOM      2  C1  UNL d   1       1.744  -1.325  -1.464  0.00  0.00    -0.077 A 
ATOM      3  C2  UNL d   1       1.328  -0.107  -2.015  0.00  0.00    -0.001 A 
ATOM      4  C3  UNL d   1      -0.018   0.107  -2.318  0.00  0.00     0.003 A 
ATOM      5  C4  UNL d   1      -0.958  -0.891  -2.073  0.00  0.00    -0.005 A 
ATOM      6  C5  UNL d   1      -0.554  -2.106  -1.523  0.00  0.00     0.003 A 
ATOM      7  C6  UNL d   1       0.791  -2.322  -1.219  0.00  0.00    -0.001 A 
ENDROOT
TORSDOF 0
ENDMDL
