MODEL 1
REMARK minimizedAffinity -2.42782164
REMARK minimizedRMSD -1
REMARK  0 active torsions:
REMARK  status: ('A' for Active; 'I' for Inactive)
ROOT
ATOM      1  C   UNL d   1       0.477   4.676   0.027  0.00  0.00     0.078 C 
ATOM      2  C1  UNL d   1       0.453   3.180   0.136  0.00  0.00    -0.077 A 
ATOM      3  C2  UNL d   1       0.511   2.546   1.383  0.00  0.00    -0.001 A 
ATOM      4  C3  UNL d   1       0.497   1.153   1.468  0.00  0.00     0.003 A 
ATOM      5  C4  UNL d   1       0.427   0.382   0.309  0.00  0.00    -0.005 A 
ATOM      6  C5  UNL d   1       0.371   1.004  -0.936  0.00  0.00     0.003 A 
ATOM      7  C6  UNL d   1       0.385   2.397  -1.024  0.00  0.00    -0.001 A 
ENDROOT
TORSDOF 0
ENDMDL
