MODEL 1
REMARK minimizedAffinity 3.812042
REMARK minimizedRMSD -1
REMARK  0 active torsions:
REMARK  status: ('A' for Active; 'I' for Inactive)
ROOT
ATOM      1  N1  IND d   1       1.133   2.612  -2.402  0.00  0.00    -0.196 N 
ATOM      2  C2  IND d   1       1.975   3.174  -3.321  0.00  0.00     0.054 A 
ATOM      3  C3  IND d   1       3.249   3.146  -2.872  0.00  0.00    -0.031 A 
ATOM      4  C4  IND d   1       4.196   2.134  -0.702  0.00  0.00     0.051 A 
ATOM      5  C5  IND d   1       3.811   1.544   0.469  0.00  0.00    -0.031 A 
ATOM      6  C6  IND d   1       2.487   1.272   0.748  0.00  0.00     0.015 A 
ATOM      7  C7  IND d   1       1.495   1.570  -0.144  0.00  0.00    -0.016 A 
ATOM      8  C8  IND d   1       1.882   2.176  -1.331  0.00  0.00    -0.047 A 
ATOM      9  C9  IND d   1       3.220   2.494  -1.601  0.00  0.00    -0.096 A 
ATOM     10  HN1 IND d   1       0.280   2.543  -2.479  0.00  0.00     0.298 HD
ENDROOT
TORSDOF 0
ENDMDL
