MODEL 1
REMARK minimizedAffinity 13.8464508
REMARK minimizedRMSD -1
REMARK  0 active torsions:
REMARK  status: ('A' for Active; 'I' for Inactive)
ROOT
ATOM      1  N1  IND d   1      -1.734  -5.920  -3.705  0.00  0.00    -0.196 N 
ATOM      2  C2  IND d   1      -2.624  -5.684  -4.715  0.00  0.00     0.054 A 
ATOM      3  C3  IND d   1      -3.010  -4.389  -4.710  0.00  0.00    -0.031 A 
ATOM      4  C4  IND d   1      -2.231  -2.457  -3.197  0.00  0.00     0.051 A 
ATOM      5  C5  IND d   1      -1.455  -2.190  -2.104  0.00  0.00    -0.031 A 
ATOM      6  C6  IND d   1      -0.715  -3.172  -1.478  0.00  0.00     0.015 A 
ATOM      7  C7  IND d   1      -0.715  -4.461  -1.930  0.00  0.00    -0.016 A 
ATOM      8  C8  IND d   1      -1.507  -4.737  -3.035  0.00  0.00    -0.047 A 
ATOM      9  C9  IND d   1      -2.293  -3.754  -3.649  0.00  0.00    -0.096 A 
ATOM     10  HN1 IND d   1      -1.376  -6.679  -3.518  0.00  0.00     0.298 HD
ENDROOT
TORSDOF 0
ENDMDL
