MODEL 1
REMARK minimizedAffinity 11.6631365
REMARK minimizedRMSD -1
REMARK  0 active torsions:
REMARK  status: ('A' for Active; 'I' for Inactive)
ROOT
ATOM      1  N1  IND d   1      -4.660   0.903   2.435  0.00  0.00    -0.196 N 
ATOM      2  C2  IND d   1      -5.599   0.462   1.545  0.00  0.00     0.054 A 
ATOM      3  C3  IND d   1      -5.072  -0.487   0.738  0.00  0.00    -0.031 A 
ATOM      4  C4  IND d   1      -2.723  -1.540   0.769  0.00  0.00     0.051 A 
ATOM      5  C5  IND d   1      -1.504  -1.437   1.378  0.00  0.00    -0.031 A 
ATOM      6  C6  IND d   1      -1.271  -0.532   2.393  0.00  0.00     0.015 A 
ATOM      7  C7  IND d   1      -2.256   0.299   2.847  0.00  0.00    -0.016 A 
ATOM      8  C8  IND d   1      -3.493   0.202   2.226  0.00  0.00    -0.047 A 
ATOM      9  C9  IND d   1      -3.724  -0.685   1.166  0.00  0.00    -0.096 A 
ATOM     10  HN1 IND d   1      -4.779   1.515   3.027  0.00  0.00     0.298 HD
ENDROOT
TORSDOF 0
ENDMDL
