MODEL 1
REMARK minimizedAffinity 18.2111206
REMARK minimizedRMSD -1
REMARK  0 active torsions:
REMARK  status: ('A' for Active; 'I' for Inactive)
ROOT
ATOM      1  N1  IND d   1       2.765   2.625  -4.149  0.00  0.00    -0.196 N 
ATOM      2  C2  IND d   1       2.068   2.373  -3.000  0.00  0.00     0.054 A 
ATOM      3  C3  IND d   1       2.748   2.836  -1.927  0.00  0.00    -0.031 A 
ATOM      4  C4  IND d   1       4.972   4.129  -1.832  0.00  0.00     0.051 A 
ATOM      5  C5  IND d   1       5.999   4.564  -2.622  0.00  0.00    -0.031 A 
ATOM      6  C6  IND d   1       6.000   4.374  -3.988  0.00  0.00     0.015 A 
ATOM      7  C7  IND d   1       4.963   3.748  -4.621  0.00  0.00    -0.016 A 
ATOM      8  C8  IND d   1       3.921   3.299  -3.822  0.00  0.00    -0.047 A 
ATOM      9  C9  IND d   1       3.935   3.451  -2.429  0.00  0.00    -0.096 A 
ATOM     10  HN1 IND d   1       2.523   2.400  -4.943  0.00  0.00     0.298 HD
ENDROOT
TORSDOF 0
ENDMDL
