MODEL 1
REMARK minimizedAffinity 24.0243225
REMARK minimizedRMSD -1
REMARK  0 active torsions:
REMARK  status: ('A' for Active; 'I' for Inactive)
ROOT
ATOM      1  N1  IND d   1       1.223  -3.346   2.035  0.00  0.00    -0.196 N 
ATOM      2  C2  IND d   1       2.049  -2.653   2.876  0.00  0.00     0.054 A 
ATOM      3  C3  IND d   1       1.524  -1.439   3.155  0.00  0.00    -0.031 A 
ATOM      4  C4  IND d   1      -0.724  -0.421   2.423  0.00  0.00     0.051 A 
ATOM      5  C5  IND d   1      -1.806  -0.661   1.622  0.00  0.00    -0.031 A 
ATOM      6  C6  IND d   1      -1.936  -1.833   0.905  0.00  0.00     0.015 A 
ATOM      7  C7  IND d   1      -0.992  -2.818   0.972  0.00  0.00    -0.016 A 
ATOM      8  C8  IND d   1       0.111  -2.575   1.779  0.00  0.00    -0.047 A 
ATOM      9  C9  IND d   1       0.269  -1.370   2.476  0.00  0.00    -0.096 A 
ATOM     10  HN1 IND d   1       1.373  -4.132   1.719  0.00  0.00     0.298 HD
ENDROOT
TORSDOF 0
ENDMDL
