MODEL 1
REMARK minimizedAffinity 7.50787592
REMARK minimizedRMSD -1
REMARK  0 active torsions:
REMARK  status: ('A' for Active; 'I' for Inactive)
ROOT
ATOM      1  N1  IND d   1      -3.773   0.008   2.419  0.00  0.00    -0.196 N 
ATOM      2  C2  IND d   1      -4.928   0.000   1.688  0.00  0.00     0.054 A 
ATOM      3  C3  IND d   1      -5.973   0.388   2.454  0.00  0.00    -0.031 A 
ATOM      4  C4  IND d   1      -6.000   1.178   4.904  0.00  0.00     0.051 A 
ATOM      5  C5  IND d   1      -5.194   1.322   5.998  0.00  0.00    -0.031 A 
ATOM      6  C6  IND d   1      -3.846   1.031   5.954  0.00  0.00     0.015 A 
ATOM      7  C7  IND d   1      -3.248   0.596   4.805  0.00  0.00    -0.016 A 
ATOM      8  C8  IND d   1      -4.065   0.442   3.694  0.00  0.00    -0.047 A 
ATOM      9  C9  IND d   1      -5.442   0.694   3.744  0.00  0.00    -0.096 A 
ATOM     10  HN1 IND d   1      -2.996  -0.220   2.132  0.00  0.00     0.298 HD
ENDROOT
TORSDOF 0
ENDMDL
