MODEL 1
REMARK minimizedAffinity 8.86038303
REMARK minimizedRMSD -1
REMARK  0 active torsions:
REMARK  status: ('A' for Active; 'I' for Inactive)
ROOT
ATOM      1  N1  IND d   1       1.032  -5.165  -2.984  0.00  0.00    -0.196 N 
ATOM      2  C2  IND d   1       2.095  -5.579  -3.736  0.00  0.00     0.054 A 
ATOM      3  C3  IND d   1       1.677  -5.999  -4.951  0.00  0.00    -0.031 A 
ATOM      4  C4  IND d   1      -0.694  -6.000  -5.954  0.00  0.00     0.051 A 
ATOM      5  C5  IND d   1      -1.999  -5.748  -5.634  0.00  0.00    -0.031 A 
ATOM      6  C6  IND d   1      -2.367  -5.277  -4.391  0.00  0.00     0.015 A 
ATOM      7  C7  IND d   1      -1.439  -5.028  -3.420  0.00  0.00    -0.016 A 
ATOM      8  C8  IND d   1      -0.114  -5.290  -3.738  0.00  0.00    -0.047 A 
ATOM      9  C9  IND d   1       0.261  -5.808  -4.985  0.00  0.00    -0.096 A 
ATOM     10  HN1 IND d   1       1.072  -4.876  -2.175  0.00  0.00     0.298 HD
ENDROOT
TORSDOF 0
ENDMDL
