MODEL 1
REMARK minimizedAffinity 17.277626
REMARK minimizedRMSD -1
REMARK  0 active torsions:
REMARK  status: ('A' for Active; 'I' for Inactive)
ROOT
ATOM      1  N1  IND d   1      -5.064  -5.999   4.794  0.00  0.00    -0.196 N 
ATOM      2  C2  IND d   1      -5.035  -5.354   5.998  0.00  0.00     0.054 A 
ATOM      3  C3  IND d   1      -4.949  -4.017   5.814  0.00  0.00    -0.031 A 
ATOM      4  C4  IND d   1      -4.946  -2.665   3.623  0.00  0.00     0.051 A 
ATOM      5  C5  IND d   1      -4.921  -2.815   2.265  0.00  0.00    -0.031 A 
ATOM      6  C6  IND d   1      -4.946  -4.059   1.668  0.00  0.00     0.015 A 
ATOM      7  C7  IND d   1      -5.008  -5.204   2.410  0.00  0.00    -0.016 A 
ATOM      8  C8  IND d   1      -5.027  -5.056   3.790  0.00  0.00    -0.047 A 
ATOM      9  C9  IND d   1      -4.959  -3.798   4.402  0.00  0.00    -0.096 A 
ATOM     10  HN1 IND d   1      -5.100  -6.851   4.681  0.00  0.00     0.298 HD
ENDROOT
TORSDOF 0
ENDMDL
