MODEL 1
REMARK minimizedAffinity 15.7507162
REMARK minimizedRMSD -1
REMARK  0 active torsions:
REMARK  status: ('A' for Active; 'I' for Inactive)
ROOT
ATOM      1  N1  IND d   1      -5.899  -3.379   2.496  0.00  0.00    -0.196 N 
ATOM      2  C2  IND d   1      -5.348  -4.626   2.394  0.00  0.00     0.054 A 
ATOM      3  C3  IND d   1      -4.037  -4.535   2.078  0.00  0.00    -0.031 A 
ATOM      4  C4  IND d   1      -2.566  -2.444   1.779  0.00  0.00     0.051 A 
ATOM      5  C5  IND d   1      -2.630  -1.079   1.739  0.00  0.00    -0.031 A 
ATOM      6  C6  IND d   1      -3.810  -0.397   1.956  0.00  0.00     0.015 A 
ATOM      7  C7  IND d   1      -4.973  -1.058   2.234  0.00  0.00    -0.016 A 
ATOM      8  C8  IND d   1      -4.914  -2.444   2.269  0.00  0.00    -0.047 A 
ATOM      9  C9  IND d   1      -3.728  -3.142   2.007  0.00  0.00    -0.096 A 
ATOM     10  HN1 IND d   1      -6.723  -3.208   2.673  0.00  0.00     0.298 HD
ENDROOT
TORSDOF 0
ENDMDL
