MODEL 1
REMARK minimizedAffinity 12.4207821
REMARK minimizedRMSD -1
REMARK  0 active torsions:
REMARK  status: ('A' for Active; 'I' for Inactive)
ROOT
ATOM      1  N1  IND d   1      -0.717  -0.383   2.941  0.00  0.00    -0.196 N 
ATOM      2  C2  IND d   1      -0.630  -1.244   1.883  0.00  0.00     0.054 A 
ATOM      3  C3  IND d   1      -1.826  -1.346   1.260  0.00  0.00    -0.031 A 
ATOM      4  C4  IND d   1      -4.033  -0.112   1.745  0.00  0.00     0.051 A 
ATOM      5  C5  IND d   1      -4.613   0.747   2.634  0.00  0.00    -0.031 A 
ATOM      6  C6  IND d   1      -3.910   1.288   3.691  0.00  0.00     0.015 A 
ATOM      7  C7  IND d   1      -2.591   0.995   3.893  0.00  0.00    -0.016 A 
ATOM      8  C8  IND d   1      -2.000   0.117   2.995  0.00  0.00    -0.047 A 
ATOM      9  C9  IND d   1      -2.720  -0.468   1.946  0.00  0.00    -0.096 A 
ATOM     10  HN1 IND d   1      -0.078  -0.187   3.482  0.00  0.00     0.298 HD
ENDROOT
TORSDOF 0
ENDMDL
