MODEL 1
REMARK minimizedAffinity 9.63977718
REMARK minimizedRMSD -1
REMARK  0 active torsions:
REMARK  status: ('A' for Active; 'I' for Inactive)
ROOT
ATOM      1  N1  IND d   1      -1.628  -5.999  -6.000  0.00  0.00    -0.196 N 
ATOM      2  C2  IND d   1      -2.789  -5.473  -5.506  0.00  0.00     0.054 A 
ATOM      3  C3  IND d   1      -2.558  -4.841  -4.333  0.00  0.00    -0.031 A 
ATOM      4  C4  IND d   1      -0.335  -4.460  -3.092  0.00  0.00     0.051 A 
ATOM      5  C5  IND d   1       0.992  -4.785  -3.134  0.00  0.00    -0.031 A 
ATOM      6  C6  IND d   1       1.525  -5.544  -4.156  0.00  0.00     0.015 A 
ATOM      7  C7  IND d   1       0.749  -5.999  -5.184  0.00  0.00    -0.016 A 
ATOM      8  C8  IND d   1      -0.601  -5.677  -5.141  0.00  0.00    -0.047 A 
ATOM      9  C9  IND d   1      -1.155  -4.943  -4.084  0.00  0.00    -0.096 A 
ATOM     10  HN1 IND d   1      -1.553  -6.455  -6.725  0.00  0.00     0.298 HD
ENDROOT
TORSDOF 0
ENDMDL
