MODEL 1
REMARK minimizedAffinity 14.7195015
REMARK minimizedRMSD -1
REMARK  0 active torsions:
REMARK  status: ('A' for Active; 'I' for Inactive)
ROOT
ATOM      1  N1  IND d   1       4.954   3.025   2.498  0.00  0.00    -0.196 N 
ATOM      2  C2  IND d   1       5.984   3.679   1.882  0.00  0.00     0.054 A 
ATOM      3  C3  IND d   1       5.914   3.511   0.543  0.00  0.00    -0.031 A 
ATOM      4  C4  IND d   1       4.138   2.286  -0.861  0.00  0.00     0.051 A 
ATOM      5  C5  IND d   1       3.024   1.503  -0.744  0.00  0.00    -0.031 A 
ATOM      6  C6  IND d   1       2.484   1.183   0.485  0.00  0.00     0.015 A 
ATOM      7  C7  IND d   1       3.034   1.646   1.647  0.00  0.00    -0.016 A 
ATOM      8  C8  IND d   1       4.169   2.435   1.532  0.00  0.00    -0.047 A 
ATOM      9  C9  IND d   1       4.746   2.729   0.290  0.00  0.00    -0.096 A 
ATOM     10  HN1 IND d   1       4.819   2.988   3.347  0.00  0.00     0.298 HD
ENDROOT
TORSDOF 0
ENDMDL
