MODEL 1
REMARK minimizedAffinity 7.75726938
REMARK minimizedRMSD -1
REMARK  0 active torsions:
REMARK  status: ('A' for Active; 'I' for Inactive)
ROOT
ATOM      1  N1  IND d   1      -4.512  -2.122   3.584  0.00  0.00    -0.196 N 
ATOM      2  C2  IND d   1      -4.901  -1.931   2.287  0.00  0.00     0.054 A 
ATOM      3  C3  IND d   1      -5.351  -0.668   2.112  0.00  0.00    -0.031 A 
ATOM      4  C4  IND d   1      -5.441   1.283   3.789  0.00  0.00     0.051 A 
ATOM      5  C5  IND d   1      -5.228   1.583   5.105  0.00  0.00    -0.031 A 
ATOM      6  C6  IND d   1      -4.753   0.645   5.999  0.00  0.00     0.015 A 
ATOM      7  C7  IND d   1      -4.461  -0.630   5.605  0.00  0.00    -0.016 A 
ATOM      8  C8  IND d   1      -4.683  -0.940   4.271  0.00  0.00    -0.047 A 
ATOM      9  C9  IND d   1      -5.205  -0.005   3.369  0.00  0.00    -0.096 A 
ATOM     10  HN1 IND d   1      -4.210  -2.856   3.914  0.00  0.00     0.298 HD
ENDROOT
TORSDOF 0
ENDMDL
