MODEL 1
REMARK minimizedAffinity 8.20585251
REMARK minimizedRMSD -1
REMARK  0 active torsions:
REMARK  status: ('A' for Active; 'I' for Inactive)
ROOT
ATOM      1  N1  IND d   1       5.084   3.826   2.073  0.00  0.00    -0.196 N 
ATOM      2  C2  IND d   1       5.997   4.416   1.245  0.00  0.00     0.054 A 
ATOM      3  C3  IND d   1       5.917   3.887   0.003  0.00  0.00    -0.031 A 
ATOM      4  C4  IND d   1       4.293   2.115  -0.918  0.00  0.00     0.051 A 
ATOM      5  C5  IND d   1       3.302   1.256  -0.530  0.00  0.00    -0.031 A 
ATOM      6  C6  IND d   1       2.844   1.212   0.771  0.00  0.00     0.015 A 
ATOM      7  C7  IND d   1       3.353   2.035   1.734  0.00  0.00    -0.016 A 
ATOM      8  C8  IND d   1       4.364   2.903   1.346  0.00  0.00    -0.047 A 
ATOM      9  C9  IND d   1       4.863   2.923   0.037  0.00  0.00    -0.096 A 
ATOM     10  HN1 IND d   1       4.977   4.001   2.908  0.00  0.00     0.298 HD
ENDROOT
TORSDOF 0
ENDMDL
