MODEL 1
REMARK minimizedAffinity 4.58436441
REMARK minimizedRMSD -1
REMARK  0 active torsions:
REMARK  status: ('A' for Active; 'I' for Inactive)
ROOT
ATOM      1  N1  IND d   1       0.760  -0.756   4.508  0.00  0.00    -0.196 N 
ATOM      2  C2  IND d   1       1.083  -0.500   3.205  0.00  0.00     0.054 A 
ATOM      3  C3  IND d   1       0.165   0.322   2.646  0.00  0.00    -0.031 A 
ATOM      4  C4  IND d   1      -1.889   1.447   3.714  0.00  0.00     0.051 A 
ATOM      5  C5  IND d   1      -2.614   1.488   4.871  0.00  0.00    -0.031 A 
ATOM      6  C6  IND d   1      -2.243   0.771   5.990  0.00  0.00     0.015 A 
ATOM      7  C7  IND d   1      -1.121  -0.009   5.997  0.00  0.00    -0.016 A 
ATOM      8  C8  IND d   1      -0.386  -0.058   4.822  0.00  0.00    -0.047 A 
ATOM      9  C9  IND d   1      -0.781   0.634   3.669  0.00  0.00    -0.096 A 
ATOM     10  HN1 IND d   1       1.199  -1.266   5.043  0.00  0.00     0.298 HD
ENDROOT
TORSDOF 0
ENDMDL
