MODEL 1
REMARK minimizedAffinity 13.9255371
REMARK minimizedRMSD -1
REMARK  0 active torsions:
REMARK  status: ('A' for Active; 'I' for Inactive)
ROOT
ATOM      1  N1  IND d   1      -5.623   0.274  -3.091  0.00  0.00    -0.196 N 
ATOM      2  C2  IND d   1      -5.854  -1.056  -3.307  0.00  0.00     0.054 A 
ATOM      3  C3  IND d   1      -5.999  -1.705  -2.129  0.00  0.00    -0.031 A 
ATOM      4  C4  IND d   1      -5.998  -0.765   0.267  0.00  0.00     0.051 A 
ATOM      5  C5  IND d   1      -5.789   0.387   0.972  0.00  0.00    -0.031 A 
ATOM      6  C6  IND d   1      -5.512   1.585   0.346  0.00  0.00     0.015 A 
ATOM      7  C7  IND d   1      -5.443   1.678  -1.015  0.00  0.00    -0.016 A 
ATOM      8  C8  IND d   1      -5.648   0.509  -1.734  0.00  0.00    -0.047 A 
ATOM      9  C9  IND d   1      -5.888  -0.718  -1.103  0.00  0.00    -0.096 A 
ATOM     10  HN1 IND d   1      -5.486   0.864  -3.701  0.00  0.00     0.298 HD
ENDROOT
TORSDOF 0
ENDMDL
