MODEL 1
REMARK minimizedAffinity 24.0771599
REMARK minimizedRMSD -1
REMARK  0 active torsions:
REMARK  status: ('A' for Active; 'I' for Inactive)
ROOT
ATOM      1  N1  IND d   1       3.059   1.965  -3.029  0.00  0.00    -0.196 N 
ATOM      2  C2  IND d   1       2.014   2.718  -3.486  0.00  0.00     0.054 A 
ATOM      3  C3  IND d   1       1.089   2.879  -2.513  0.00  0.00    -0.031 A 
ATOM      4  C4  IND d   1       1.133   2.079  -0.066  0.00  0.00     0.051 A 
ATOM      5  C5  IND d   1       1.863   1.323   0.807  0.00  0.00    -0.031 A 
ATOM      6  C6  IND d   1       3.055   0.732   0.439  0.00  0.00     0.015 A 
ATOM      7  C7  IND d   1       3.568   0.886  -0.817  0.00  0.00    -0.016 A 
ATOM      8  C8  IND d   1       2.826   1.647  -1.709  0.00  0.00    -0.047 A 
ATOM      9  C9  IND d   1       1.595   2.214  -1.354  0.00  0.00    -0.096 A 
ATOM     10  HN1 IND d   1       3.746   1.729  -3.489  0.00  0.00     0.298 HD
ENDROOT
TORSDOF 0
ENDMDL
