MODEL 1
REMARK minimizedAffinity -5.41980028
REMARK minimizedRMSD -1
REMARK  1 active torsions:
REMARK  status: ('A' for Active; 'I' for Inactive)
REMARK    1  A    between atoms: C1_2  and  C2_3 
ROOT
ATOM      1  C2  UNL d   1       0.279  -0.289   0.061  0.00  0.00    -0.077 A 
ATOM      2  C3  UNL d   1       1.080   0.624  -0.640  0.00  0.00     0.002 A 
ATOM      3  C4  UNL d   1       1.428   1.846  -0.063  0.00  0.00     0.002 A 
ATOM      4  C5  UNL d   1       0.984   2.165   1.219  0.00  0.00    -0.004 A 
ATOM      5  C6  UNL d   1       0.186   1.265   1.923  0.00  0.00     0.002 A 
ATOM      6  C7  UNL d   1      -0.165   0.043   1.347  0.00  0.00     0.002 A 
ENDROOT
BRANCH   1   7
ATOM      7  C1  UNL d   1      -0.057  -1.629  -0.540  0.00  0.00     0.055 C 
ATOM      8  C   UNL d   1      -1.192  -1.514  -1.547  0.00  0.00     0.019 C 
ENDBRANCH   1   7
TORSDOF 1
ENDMDL
