MODEL 1
REMARK minimizedAffinity -4.26960611
REMARK minimizedRMSD -1
REMARK  1 active torsions:
REMARK  status: ('A' for Active; 'I' for Inactive)
REMARK    1  A    between atoms: C1_2  and  C2_3 
ROOT
ATOM      1  C2  UNL d   1       0.061  -0.409   0.003  0.00  0.00    -0.077 A 
ATOM      2  C3  UNL d   1       0.967   0.660  -0.036  0.00  0.00     0.002 A 
ATOM      3  C4  UNL d   1       1.001   1.596   0.999  0.00  0.00     0.002 A 
ATOM      4  C5  UNL d   1       0.135   1.470   2.083  0.00  0.00    -0.004 A 
ATOM      5  C6  UNL d   1      -0.771   0.411   2.131  0.00  0.00     0.002 A 
ATOM      6  C7  UNL d   1      -0.807  -0.525   1.096  0.00  0.00     0.002 A 
ENDROOT
BRANCH   1   7
ATOM      7  C1  UNL d   1       0.057  -1.447  -1.088  0.00  0.00     0.055 C 
ATOM      8  C   UNL d   1      -1.317  -1.567  -1.733  0.00  0.00     0.019 C 
ENDBRANCH   1   7
TORSDOF 1
ENDMDL
