MODEL 1
REMARK minimizedAffinity -2.05395722
REMARK minimizedRMSD -1
REMARK  1 active torsions:
REMARK  status: ('A' for Active; 'I' for Inactive)
REMARK    1  A    between atoms: C1_2  and  C2_3 
ROOT
ATOM      1  C2  UNL d   1      -0.907  -1.421  -1.431  0.00  0.00    -0.077 A 
ATOM      2  C3  UNL d   1      -0.395  -1.009  -2.669  0.00  0.00     0.002 A 
ATOM      3  C4  UNL d   1      -1.121  -1.228  -3.842  0.00  0.00     0.002 A 
ATOM      4  C5  UNL d   1      -2.364  -1.856  -3.786  0.00  0.00    -0.004 A 
ATOM      5  C6  UNL d   1      -2.880  -2.272  -2.560  0.00  0.00     0.002 A 
ATOM      6  C7  UNL d   1      -2.155  -2.054  -1.387  0.00  0.00     0.002 A 
ENDROOT
BRANCH   1   7
ATOM      7  C1  UNL d   1      -0.148  -1.141  -0.160  0.00  0.00     0.055 C 
ATOM      8  C   UNL d   1      -0.459   0.249   0.376  0.00  0.00     0.019 C 
ENDBRANCH   1   7
TORSDOF 1
ENDMDL
