MODEL 1
REMARK minimizedAffinity -0.7615695
REMARK minimizedRMSD -1
REMARK  1 active torsions:
REMARK  status: ('A' for Active; 'I' for Inactive)
REMARK    1  A    between atoms: C1_2  and  C2_3 
ROOT
ATOM      1  C2  UNL d   1       0.896   0.828  -0.053  0.00  0.00    -0.077 A 
ATOM      2  C3  UNL d   1      -0.339   0.210   0.186  0.00  0.00     0.002 A 
ATOM      3  C4  UNL d   1      -0.592  -1.074  -0.302  0.00  0.00     0.002 A 
ATOM      4  C5  UNL d   1       0.387  -1.751  -1.027  0.00  0.00    -0.004 A 
ATOM      5  C6  UNL d   1       1.618  -1.144  -1.271  0.00  0.00     0.002 A 
ATOM      6  C7  UNL d   1       1.872   0.140  -0.785  0.00  0.00     0.002 A 
ENDROOT
BRANCH   1   7
ATOM      7  C1  UNL d   1       1.189   2.193   0.514  0.00  0.00     0.055 C 
ATOM      8  C   UNL d   1       1.435   2.128   2.014  0.00  0.00     0.019 C 
ENDBRANCH   1   7
TORSDOF 1
ENDMDL
