MODEL 1
REMARK minimizedAffinity -4.2601614
REMARK minimizedRMSD -1
REMARK  1 active torsions:
REMARK  status: ('A' for Active; 'I' for Inactive)
REMARK    1  A    between atoms: C1_2  and  C2_3 
ROOT
ATOM      1  C2  UNL d   1      -0.293  -1.294  -0.250  0.00  0.00    -0.077 A 
ATOM      2  C3  UNL d   1      -0.559  -0.064   0.368  0.00  0.00     0.002 A 
ATOM      3  C4  UNL d   1       0.444   0.899   0.486  0.00  0.00     0.002 A 
ATOM      4  C5  UNL d   1       1.719   0.645  -0.015  0.00  0.00    -0.004 A 
ATOM      5  C6  UNL d   1       1.995  -0.576  -0.630  0.00  0.00     0.002 A 
ATOM      6  C7  UNL d   1       0.993  -1.541  -0.747  0.00  0.00     0.002 A 
ENDROOT
BRANCH   1   7
ATOM      7  C1  UNL d   1      -1.387  -2.315  -0.422  0.00  0.00     0.055 C 
ATOM      8  C   UNL d   1      -2.033  -2.208  -1.795  0.00  0.00     0.019 C 
ENDBRANCH   1   7
TORSDOF 1
ENDMDL
