MODEL 1
REMARK minimizedAffinity -0.850602925
REMARK minimizedRMSD -1
REMARK  1 active torsions:
REMARK  status: ('A' for Active; 'I' for Inactive)
REMARK    1  A    between atoms: C1_2  and  C2_3 
ROOT
ATOM      1  C2  UNL d   1      -1.367  -1.671  -1.855  0.00  0.00    -0.077 A 
ATOM      2  C3  UNL d   1      -1.000  -1.220  -3.131  0.00  0.00     0.002 A 
ATOM      3  C4  UNL d   1      -1.957  -1.101  -4.140  0.00  0.00     0.002 A 
ATOM      4  C5  UNL d   1      -3.287  -1.426  -3.883  0.00  0.00    -0.004 A 
ATOM      5  C6  UNL d   1      -3.662  -1.878  -2.618  0.00  0.00     0.002 A 
ATOM      6  C7  UNL d   1      -2.706  -1.999  -1.608  0.00  0.00     0.002 A 
ENDROOT
BRANCH   1   7
ATOM      7  C1  UNL d   1      -0.345  -1.754  -0.751  0.00  0.00     0.055 C 
ATOM      8  C   UNL d   1       0.933  -1.016  -1.123  0.00  0.00     0.019 C 
ENDBRANCH   1   7
TORSDOF 1
ENDMDL
