MODEL 1
REMARK minimizedAffinity -5.91470194
REMARK minimizedRMSD -1
REMARK  1 active torsions:
REMARK  status: ('A' for Active; 'I' for Inactive)
REMARK    1  A    between atoms: C1_2  and  C2_3 
ROOT
ATOM      1  C2  UNL d   1       0.466  -0.031   0.285  0.00  0.00    -0.077 A 
ATOM      2  C3  UNL d   1       1.825   0.192   0.021  0.00  0.00     0.002 A 
ATOM      3  C4  UNL d   1       2.459   1.339   0.501  0.00  0.00     0.002 A 
ATOM      4  C5  UNL d   1       1.744   2.269   1.253  0.00  0.00    -0.004 A 
ATOM      5  C6  UNL d   1       0.392   2.058   1.520  0.00  0.00     0.002 A 
ATOM      6  C7  UNL d   1      -0.244   0.912   1.039  0.00  0.00     0.002 A 
ENDROOT
BRANCH   1   7
ATOM      7  C1  UNL d   1      -0.207  -1.292  -0.190  0.00  0.00     0.055 C 
ATOM      8  C   UNL d   1      -1.042  -1.037  -1.437  0.00  0.00     0.019 C 
ENDBRANCH   1   7
TORSDOF 1
ENDMDL
