MODEL 1
REMARK minimizedAffinity -1.47229958
REMARK minimizedRMSD -1
REMARK  2 active torsions:
REMARK  status: ('A' for Active; 'I' for Inactive)
REMARK    1  A    between atoms: C2'_3  and  C1'_4 
REMARK    2  A    between atoms: C1'_4  and  C1_5 
ROOT
ATOM      1  C1  I4B d   1       1.943   2.038   0.203  0.00  0.00    -0.075 A 
ATOM      2  C2  I4B d   1       2.123   3.139  -0.597  0.00  0.00     0.003 A 
ATOM      3  C3  I4B d   1       1.022   3.963  -0.933  0.00  0.00     0.002 A 
ATOM      4  C4  I4B d   1      -0.240   3.624  -0.492  0.00  0.00    -0.004 A 
ATOM      5  C5  I4B d   1      -0.417   2.521   0.338  0.00  0.00     0.002 A 
ATOM      6  C6  I4B d   1       0.683   1.730   0.698  0.00  0.00     0.003 A 
ENDROOT
BRANCH   1   7
ATOM      7  C1' I4B d   1       3.122   1.170   0.511  0.00  0.00     0.060 C 
BRANCH   7   8
ATOM      8  C2' I4B d   1       2.916   0.575   1.889  0.00  0.00    -0.013 C 
ATOM      9  C4' I4B d   1       2.752   1.652   2.929  0.00  0.00     0.013 C 
ATOM     10  C3' I4B d   1       1.709  -0.313   1.834  0.00  0.00     0.013 C 
ENDBRANCH   7   8
ENDBRANCH   1   7
TORSDOF 2
ENDMDL
