MODEL 1
REMARK minimizedAffinity 3.16626573
REMARK minimizedRMSD -1
REMARK  2 active torsions:
REMARK  status: ('A' for Active; 'I' for Inactive)
REMARK    1  A    between atoms: C2'_3  and  C1'_4 
REMARK    2  A    between atoms: C1'_4  and  C1_5 
ROOT
ATOM      1  C1  I4B d   1       1.167  -0.049   1.359  0.00  0.00    -0.075 A 
ATOM      2  C2  I4B d   1       2.510   0.153   1.154  0.00  0.00     0.003 A 
ATOM      3  C3  I4B d   1       2.984   1.416   0.724  0.00  0.00     0.002 A 
ATOM      4  C4  I4B d   1       2.082   2.427   0.464  0.00  0.00    -0.004 A 
ATOM      5  C5  I4B d   1       0.724   2.228   0.694  0.00  0.00     0.002 A 
ATOM      6  C6  I4B d   1       0.264   0.987   1.156  0.00  0.00     0.003 A 
ENDROOT
BRANCH   1   7
ATOM      7  C1' I4B d   1       0.698  -1.405   1.782  0.00  0.00     0.060 C 
BRANCH   7   8
ATOM      8  C2' I4B d   1      -0.224  -1.936   0.703  0.00  0.00    -0.013 C 
ATOM      9  C4' I4B d   1       0.162  -3.334   0.296  0.00  0.00     0.013 C 
ATOM     10  C3' I4B d   1      -1.627  -1.894   1.232  0.00  0.00     0.013 C 
ENDBRANCH   7   8
ENDBRANCH   1   7
TORSDOF 2
ENDMDL
