MODEL 1
REMARK minimizedAffinity 5.6164422
REMARK minimizedRMSD -1
REMARK  2 active torsions:
REMARK  status: ('A' for Active; 'I' for Inactive)
REMARK    1  A    between atoms: C2'_3  and  C1'_4 
REMARK    2  A    between atoms: C1'_4  and  C1_5 
ROOT
ATOM      1  C1  I4B d   1       0.116  -3.254  -1.485  0.00  0.00    -0.075 A 
ATOM      2  C2  I4B d   1      -0.392  -4.529  -1.520  0.00  0.00     0.003 A 
ATOM      3  C3  I4B d   1      -1.792  -4.737  -1.557  0.00  0.00     0.002 A 
ATOM      4  C4  I4B d   1      -2.642  -3.651  -1.508  0.00  0.00    -0.004 A 
ATOM      5  C5  I4B d   1      -2.125  -2.359  -1.496  0.00  0.00     0.002 A 
ATOM      6  C6  I4B d   1      -0.737  -2.158  -1.497  0.00  0.00     0.003 A 
ENDROOT
BRANCH   1   7
ATOM      7  C1' I4B d   1       1.599  -3.072  -1.413  0.00  0.00     0.060 C 
BRANCH   7   8
ATOM      8  C2' I4B d   1       2.217  -4.406  -1.047  0.00  0.00    -0.013 C 
ATOM      9  C4' I4B d   1       3.597  -4.547  -1.633  0.00  0.00     0.013 C 
ATOM     10  C3' I4B d   1       2.251  -4.505   0.449  0.00  0.00     0.013 C 
ENDBRANCH   7   8
ENDBRANCH   1   7
TORSDOF 2
ENDMDL
