MODEL 1
REMARK minimizedAffinity -1.27157891
REMARK minimizedRMSD -1
REMARK  2 active torsions:
REMARK  status: ('A' for Active; 'I' for Inactive)
REMARK    1  A    between atoms: C2'_3  and  C1'_4 
REMARK    2  A    between atoms: C1'_4  and  C1_5 
ROOT
ATOM      1  C1  I4B d   1       1.320  -0.516   2.101  0.00  0.00    -0.075 A 
ATOM      2  C2  I4B d   1       0.308  -0.479   1.175  0.00  0.00     0.003 A 
ATOM      3  C3  I4B d   1       0.262   0.555   0.209  0.00  0.00     0.002 A 
ATOM      4  C4  I4B d   1       1.214   1.553   0.237  0.00  0.00    -0.004 A 
ATOM      5  C5  I4B d   1       2.253   1.502   1.162  0.00  0.00     0.002 A 
ATOM      6  C6  I4B d   1       2.314   0.455   2.093  0.00  0.00     0.003 A 
ENDROOT
BRANCH   1   7
ATOM      7  C1' I4B d   1       1.319  -1.603   3.128  0.00  0.00     0.060 C 
BRANCH   7   8
ATOM      8  C2' I4B d   1       2.315  -1.228   4.207  0.00  0.00    -0.013 C 
ATOM      9  C4' I4B d   1       1.680  -0.351   5.253  0.00  0.00     0.013 C 
ATOM     10  C3' I4B d   1       2.843  -2.495   4.811  0.00  0.00     0.013 C 
ENDBRANCH   7   8
ENDBRANCH   1   7
TORSDOF 2
ENDMDL
