MODEL 1
REMARK minimizedAffinity 16.4721107
REMARK minimizedRMSD -1
REMARK  0 active torsions:
REMARK  status: ('A' for Active; 'I' for Inactive)
ROOT
ATOM      1  C1  DEN d   1      -2.082  -0.569  -3.003  0.00  0.00     0.130 A 
ATOM      2  C2  DEN d   1      -2.645   0.251  -4.072  0.00  0.00    -0.031 A 
ATOM      3  C3  DEN d   1      -2.980   1.573  -3.505  0.00  0.00     0.027 A 
ATOM      4  C4  DEN d   1      -2.679   2.426  -1.090  0.00  0.00     0.027 A 
ATOM      5  C5  DEN d   1      -2.252   2.087   0.175  0.00  0.00    -0.003 A 
ATOM      6  C6  DEN d   1      -1.775   0.839   0.475  0.00  0.00     0.001 A 
ATOM      7  C7  DEN d   1      -1.670  -0.103  -0.514  0.00  0.00     0.017 A 
ATOM      8  C8  DEN d   1      -2.105   0.229  -1.790  0.00  0.00    -0.094 A 
ATOM      9  C9  DEN d   1      -2.573   1.500  -2.076  0.00  0.00    -0.072 A 
ENDROOT
TORSDOF 0
ENDMDL
