MODEL 1
REMARK minimizedAffinity 12.9935932
REMARK minimizedRMSD -1
REMARK  0 active torsions:
REMARK  status: ('A' for Active; 'I' for Inactive)
ROOT
ATOM      1  C1  DEN d   1      -3.450  -5.489  -2.547  0.00  0.00     0.130 A 
ATOM      2  C2  DEN d   1      -2.189  -6.000  -3.079  0.00  0.00    -0.031 A 
ATOM      3  C3  DEN d   1      -2.166  -5.734  -4.532  0.00  0.00     0.027 A 
ATOM      4  C4  DEN d   1      -3.947  -4.583  -6.000  0.00  0.00     0.027 A 
ATOM      5  C5  DEN d   1      -5.191  -3.992  -5.999  0.00  0.00    -0.003 A 
ATOM      6  C6  DEN d   1      -5.950  -3.889  -4.864  0.00  0.00     0.001 A 
ATOM      7  C7  DEN d   1      -5.453  -4.345  -3.671  0.00  0.00     0.017 A 
ATOM      8  C8  DEN d   1      -4.203  -4.949  -3.665  0.00  0.00    -0.094 A 
ATOM      9  C9  DEN d   1      -3.446  -5.033  -4.822  0.00  0.00    -0.072 A 
ENDROOT
TORSDOF 0
ENDMDL
