MODEL 1
REMARK minimizedAffinity 12.3435116
REMARK minimizedRMSD -1
REMARK  0 active torsions:
REMARK  status: ('A' for Active; 'I' for Inactive)
ROOT
ATOM      1  C1  DEN d   1      -2.994   2.165  -1.572  0.00  0.00     0.130 A 
ATOM      2  C2  DEN d   1      -2.301   0.989  -1.054  0.00  0.00    -0.031 A 
ATOM      3  C3  DEN d   1      -2.282  -0.035  -2.119  0.00  0.00     0.027 A 
ATOM      4  C4  DEN d   1      -3.249   0.090  -4.507  0.00  0.00     0.027 A 
ATOM      5  C5  DEN d   1      -3.937   0.881  -5.399  0.00  0.00    -0.003 A 
ATOM      6  C6  DEN d   1      -4.386   2.133  -5.070  0.00  0.00     0.001 A 
ATOM      7  C7  DEN d   1      -4.111   2.648  -3.831  0.00  0.00     0.017 A 
ATOM      8  C8  DEN d   1      -3.424   1.853  -2.923  0.00  0.00    -0.094 A 
ATOM      9  C9  DEN d   1      -2.969   0.595  -3.279  0.00  0.00    -0.072 A 
ENDROOT
TORSDOF 0
ENDMDL
