MODEL 1
REMARK minimizedAffinity 6.80205059
REMARK minimizedRMSD -1
REMARK  0 active torsions:
REMARK  status: ('A' for Active; 'I' for Inactive)
ROOT
ATOM      1  C1  DEN d   1       2.970  -4.976   4.084  0.00  0.00     0.130 A 
ATOM      2  C2  DEN d   1       2.546  -3.766   4.782  0.00  0.00    -0.031 A 
ATOM      3  C3  DEN d   1       3.379  -2.646   4.301  0.00  0.00     0.027 A 
ATOM      4  C4  DEN d   1       5.271  -2.667   2.547  0.00  0.00     0.027 A 
ATOM      5  C5  DEN d   1       5.998  -3.464   1.690  0.00  0.00    -0.003 A 
ATOM      6  C6  DEN d   1       5.791  -4.814   1.596  0.00  0.00     0.001 A 
ATOM      7  C7  DEN d   1       4.803  -5.403   2.340  0.00  0.00     0.017 A 
ATOM      8  C8  DEN d   1       4.071  -4.608   3.212  0.00  0.00    -0.094 A 
ATOM      9  C9  DEN d   1       4.287  -3.242   3.284  0.00  0.00    -0.072 A 
ENDROOT
TORSDOF 0
ENDMDL
