MODEL 1
REMARK minimizedAffinity 7.55031824
REMARK minimizedRMSD -1
REMARK  0 active torsions:
REMARK  status: ('A' for Active; 'I' for Inactive)
ROOT
ATOM      1  C1  DEN d   1       1.804  -1.060   4.425  0.00  0.00     0.130 A 
ATOM      2  C2  DEN d   1       1.379  -2.382   3.971  0.00  0.00    -0.031 A 
ATOM      3  C3  DEN d   1       1.395  -2.385   2.495  0.00  0.00     0.027 A 
ATOM      4  C4  DEN d   1       2.039  -0.484   0.875  0.00  0.00     0.027 A 
ATOM      5  C5  DEN d   1       2.456   0.827   0.791  0.00  0.00    -0.003 A 
ATOM      6  C6  DEN d   1       2.650   1.604   1.902  0.00  0.00     0.001 A 
ATOM      7  C7  DEN d   1       2.471   1.063   3.148  0.00  0.00     0.017 A 
ATOM      8  C8  DEN d   1       2.044  -0.255   3.241  0.00  0.00    -0.094 A 
ATOM      9  C9  DEN d   1       1.865  -1.028   2.106  0.00  0.00    -0.072 A 
ENDROOT
TORSDOF 0
ENDMDL
