MODEL 1
REMARK minimizedAffinity 6.62403393
REMARK minimizedRMSD -1
REMARK  0 active torsions:
REMARK  status: ('A' for Active; 'I' for Inactive)
ROOT
ATOM      1  C1  DEN d   1       0.718  -0.783   2.740  0.00  0.00     0.130 A 
ATOM      2  C2  DEN d   1       1.755   0.044   2.130  0.00  0.00    -0.031 A 
ATOM      3  C3  DEN d   1       3.063  -0.409   2.646  0.00  0.00     0.027 A 
ATOM      4  C4  DEN d   1       3.578  -2.303   4.320  0.00  0.00     0.027 A 
ATOM      5  C5  DEN d   1       3.021  -3.277   5.119  0.00  0.00    -0.003 A 
ATOM      6  C6  DEN d   1       1.667  -3.464   5.207  0.00  0.00     0.001 A 
ATOM      7  C7  DEN d   1       0.825  -2.695   4.448  0.00  0.00     0.017 A 
ATOM      8  C8  DEN d   1       1.379  -1.705   3.645  0.00  0.00    -0.094 A 
ATOM      9  C9  DEN d   1       2.751  -1.540   3.561  0.00  0.00    -0.072 A 
ENDROOT
TORSDOF 0
ENDMDL
