MODEL 1
REMARK minimizedAffinity 7.43972731
REMARK minimizedRMSD -1
REMARK  0 active torsions:
REMARK  status: ('A' for Active; 'I' for Inactive)
ROOT
ATOM      1  C1  DEN d   1      -1.491   1.037  -3.072  0.00  0.00     0.130 A 
ATOM      2  C2  DEN d   1      -2.426  -0.022  -3.442  0.00  0.00    -0.031 A 
ATOM      3  C3  DEN d   1      -2.187  -1.174  -2.549  0.00  0.00     0.027 A 
ATOM      4  C4  DEN d   1      -0.475  -1.416  -0.636  0.00  0.00     0.027 A 
ATOM      5  C5  DEN d   1       0.543  -0.786   0.046  0.00  0.00    -0.003 A 
ATOM      6  C6  DEN d   1       0.974   0.472  -0.283  0.00  0.00     0.001 A 
ATOM      7  C7  DEN d   1       0.353   1.159  -1.293  0.00  0.00     0.017 A 
ATOM      8  C8  DEN d   1      -0.669   0.528  -1.990  0.00  0.00    -0.094 A 
ATOM      9  C9  DEN d   1      -1.098  -0.740  -1.634  0.00  0.00    -0.072 A 
ENDROOT
TORSDOF 0
ENDMDL
