MODEL 1
REMARK minimizedAffinity 16.030304
REMARK minimizedRMSD -1
REMARK  0 active torsions:
REMARK  status: ('A' for Active; 'I' for Inactive)
ROOT
ATOM      1  C   UNL d   1       5.721   3.404   1.977  0.00  0.00    -0.002 A 
ATOM      2  C1  UNL d   1       5.999   2.245   2.687  0.00  0.00     0.010 A 
ATOM      3  C2  UNL d   1       5.195   1.112   2.541  0.00  0.00     0.041 A 
ATOM      4  C3  UNL d   1       4.097   1.165   1.660  0.00  0.00    -0.075 A 
ATOM      5  S   UNL d   1       2.976  -0.100   1.320  0.00  0.00     0.015 SA
ATOM      6  C4  UNL d   1       2.101   0.869   0.224  0.00  0.00     0.022 A 
ATOM      7  C5  UNL d   1       2.638   2.129   0.108  0.00  0.00     0.026 A 
ATOM      8  C6  UNL d   1       3.797   2.320   0.933  0.00  0.00    -0.082 A 
ATOM      9  C7  UNL d   1       4.631   3.452   1.103  0.00  0.00     0.045 A 
ENDROOT
TORSDOF 0
ENDMDL
