MODEL 1
REMARK minimizedAffinity 22.2610359
REMARK minimizedRMSD -1
REMARK  0 active torsions:
REMARK  status: ('A' for Active; 'I' for Inactive)
ROOT
ATOM      1  C   UNL d   1       5.156  -5.970   0.776  0.00  0.00    -0.002 A 
ATOM      2  C1  UNL d   1       3.870  -5.998   0.256  0.00  0.00     0.010 A 
ATOM      3  C2  UNL d   1       3.329  -4.869  -0.363  0.00  0.00     0.041 A 
ATOM      4  C3  UNL d   1       4.111  -3.700  -0.452  0.00  0.00    -0.075 A 
ATOM      5  S   UNL d   1       3.657  -2.198  -1.166  0.00  0.00     0.015 SA
ATOM      6  C4  UNL d   1       5.161  -1.484  -0.799  0.00  0.00     0.022 A 
ATOM      7  C5  UNL d   1       6.000  -2.356  -0.147  0.00  0.00     0.026 A 
ATOM      8  C6  UNL d   1       5.409  -3.648   0.064  0.00  0.00    -0.082 A 
ATOM      9  C7  UNL d   1       5.929  -4.809   0.685  0.00  0.00     0.045 A 
ENDROOT
TORSDOF 0
ENDMDL
