MODEL 1
REMARK minimizedAffinity 24.3822002
REMARK minimizedRMSD -1
REMARK  0 active torsions:
REMARK  status: ('A' for Active; 'I' for Inactive)
ROOT
ATOM      1  C   UNL d   1       5.399   3.972  -5.274  0.00  0.00    -0.002 A 
ATOM      2  C1  UNL d   1       6.000   4.353  -4.082  0.00  0.00     0.010 A 
ATOM      3  C2  UNL d   1       5.360   4.130  -2.861  0.00  0.00     0.041 A 
ATOM      4  C3  UNL d   1       4.095   3.510  -2.858  0.00  0.00    -0.075 A 
ATOM      5  S   UNL d   1       3.125   3.135  -1.483  0.00  0.00     0.015 SA
ATOM      6  C4  UNL d   1       1.891   2.459  -2.444  0.00  0.00     0.022 A 
ATOM      7  C5  UNL d   1       2.195   2.510  -3.784  0.00  0.00     0.026 A 
ATOM      8  C6  UNL d   1       3.470   3.116  -4.044  0.00  0.00    -0.082 A 
ATOM      9  C7  UNL d   1       4.144   3.357  -5.266  0.00  0.00     0.045 A 
ENDROOT
TORSDOF 0
ENDMDL
