MODEL 1
REMARK minimizedAffinity 17.4072247
REMARK minimizedRMSD -1
REMARK  0 active torsions:
REMARK  status: ('A' for Active; 'I' for Inactive)
ROOT
ATOM      1  C   UNL d   1       5.385   3.734   1.871  0.00  0.00    -0.002 A 
ATOM      2  C1  UNL d   1       6.000   3.380   0.679  0.00  0.00     0.010 A 
ATOM      3  C2  UNL d   1       5.293   2.688  -0.307  0.00  0.00     0.041 A 
ATOM      4  C3  UNL d   1       3.944   2.356  -0.072  0.00  0.00    -0.075 A 
ATOM      5  S   UNL d   1       2.881   1.512  -1.135  0.00  0.00     0.015 SA
ATOM      6  C4  UNL d   1       1.586   1.602  -0.031  0.00  0.00     0.022 A 
ATOM      7  C5  UNL d   1       1.938   2.257   1.125  0.00  0.00     0.026 A 
ATOM      8  C6  UNL d   1       3.303   2.703   1.121  0.00  0.00    -0.082 A 
ATOM      9  C7  UNL d   1       4.047   3.403   2.101  0.00  0.00     0.045 A 
ENDROOT
TORSDOF 0
ENDMDL
