MODEL 1
REMARK minimizedAffinity 19.6432838
REMARK minimizedRMSD -1
REMARK  0 active torsions:
REMARK  status: ('A' for Active; 'I' for Inactive)
ROOT
ATOM      1  C   UNL d   1      -2.567   1.247   4.114  0.00  0.00    -0.002 A 
ATOM      2  C1  UNL d   1      -1.950   0.976   5.327  0.00  0.00     0.010 A 
ATOM      3  C2  UNL d   1      -0.815   0.165   5.380  0.00  0.00     0.041 A 
ATOM      4  C3  UNL d   1      -0.304  -0.372   4.183  0.00  0.00    -0.075 A 
ATOM      5  S   UNL d   1       1.076  -1.390   4.006  0.00  0.00     0.015 SA
ATOM      6  C4  UNL d   1       0.880  -1.489   2.315  0.00  0.00     0.022 A 
ATOM      7  C5  UNL d   1      -0.207  -0.768   1.880  0.00  0.00     0.026 A 
ATOM      8  C6  UNL d   1      -0.907  -0.112   2.949  0.00  0.00    -0.082 A 
ATOM      9  C7  UNL d   1      -2.057   0.713   2.928  0.00  0.00     0.045 A 
ENDROOT
TORSDOF 0
ENDMDL
