MODEL 1
REMARK minimizedAffinity 21.2459335
REMARK minimizedRMSD -1
REMARK  0 active torsions:
REMARK  status: ('A' for Active; 'I' for Inactive)
ROOT
ATOM      1  C   UNL d   1       3.308   0.691   0.109  0.00  0.00    -0.002 A 
ATOM      2  C1  UNL d   1       2.402   1.488   0.794  0.00  0.00     0.010 A 
ATOM      3  C2  UNL d   1       1.753   2.542   0.148  0.00  0.00     0.041 A 
ATOM      4  C3  UNL d   1       2.031   2.782  -1.212  0.00  0.00    -0.075 A 
ATOM      5  S   UNL d   1       1.355   4.016  -2.209  0.00  0.00     0.015 SA
ATOM      6  C4  UNL d   1       2.252   3.513  -3.568  0.00  0.00     0.022 A 
ATOM      7  C5  UNL d   1       3.054   2.432  -3.286  0.00  0.00     0.026 A 
ATOM      8  C6  UNL d   1       2.939   1.993  -1.923  0.00  0.00    -0.082 A 
ATOM      9  C7  UNL d   1       3.582   0.933  -1.240  0.00  0.00     0.045 A 
ENDROOT
TORSDOF 0
ENDMDL
