MODEL 1
REMARK minimizedAffinity 8.98831081
REMARK minimizedRMSD -1
REMARK  0 active torsions:
REMARK  status: ('A' for Active; 'I' for Inactive)
ROOT
ATOM      1  C   UNL d   1      -4.737  -0.066  -1.084  0.00  0.00    -0.002 A 
ATOM      2  C1  UNL d   1      -5.341   0.869  -0.256  0.00  0.00     0.010 A 
ATOM      3  C2  UNL d   1      -4.821   1.137   1.012  0.00  0.00     0.041 A 
ATOM      4  C3  UNL d   1      -3.670   0.443   1.437  0.00  0.00    -0.075 A 
ATOM      5  S   UNL d   1      -2.856   0.608   2.948  0.00  0.00     0.015 SA
ATOM      6  C4  UNL d   1      -1.687  -0.559   2.529  0.00  0.00     0.022 A 
ATOM      7  C5  UNL d   1      -1.897  -1.072   1.271  0.00  0.00     0.026 A 
ATOM      8  C6  UNL d   1      -3.043  -0.503   0.621  0.00  0.00    -0.082 A 
ATOM      9  C7  UNL d   1      -3.596  -0.752  -0.659  0.00  0.00     0.045 A 
ENDROOT
TORSDOF 0
ENDMDL
