MODEL 1
REMARK minimizedAffinity 22.1121693
REMARK minimizedRMSD -1
REMARK  0 active torsions:
REMARK  status: ('A' for Active; 'I' for Inactive)
ROOT
ATOM      1  C   UNL d   1      -2.222  -0.666   0.231  0.00  0.00    -0.002 A 
ATOM      2  C1  UNL d   1      -1.132  -1.368   0.726  0.00  0.00     0.010 A 
ATOM      3  C2  UNL d   1      -0.713  -1.192   2.046  0.00  0.00     0.041 A 
ATOM      4  C3  UNL d   1      -1.416  -0.290   2.869  0.00  0.00    -0.075 A 
ATOM      5  S   UNL d   1      -1.084   0.087   4.519  0.00  0.00     0.015 SA
ATOM      6  C4  UNL d   1      -2.382   1.188   4.606  0.00  0.00     0.022 A 
ATOM      7  C5  UNL d   1      -3.062   1.279   3.414  0.00  0.00     0.026 A 
ATOM      8  C6  UNL d   1      -2.517   0.428   2.394  0.00  0.00    -0.082 A 
ATOM      9  C7  UNL d   1      -2.916   0.227   1.051  0.00  0.00     0.045 A 
ENDROOT
TORSDOF 0
ENDMDL
