MODEL 1
REMARK minimizedAffinity 23.2404327
REMARK minimizedRMSD -1
REMARK  0 active torsions:
REMARK  status: ('A' for Active; 'I' for Inactive)
ROOT
ATOM      1  C   UNL d   1       2.648   2.456  -2.687  0.00  0.00    -0.002 A 
ATOM      2  C1  UNL d   1       3.084   2.260  -3.990  0.00  0.00     0.010 A 
ATOM      3  C2  UNL d   1       4.118   3.035  -4.517  0.00  0.00     0.041 A 
ATOM      4  C3  UNL d   1       4.715   4.019  -3.705  0.00  0.00    -0.075 A 
ATOM      5  S   UNL d   1       5.998   5.086  -4.137  0.00  0.00     0.015 SA
ATOM      6  C4  UNL d   1       6.000   5.826  -2.602  0.00  0.00     0.022 A 
ATOM      7  C5  UNL d   1       5.051   5.285  -1.768  0.00  0.00     0.026 A 
ATOM      8  C6  UNL d   1       4.295   4.234  -2.389  0.00  0.00    -0.082 A 
ATOM      9  C7  UNL d   1       3.243   3.433  -1.884  0.00  0.00     0.045 A 
ENDROOT
TORSDOF 0
ENDMDL
