MODEL 1
REMARK minimizedAffinity 21.6453686
REMARK minimizedRMSD -1
REMARK  0 active torsions:
REMARK  status: ('A' for Active; 'I' for Inactive)
ROOT
ATOM      1  C   UNL d   1       3.349   0.644  -0.020  0.00  0.00    -0.002 A 
ATOM      2  C1  UNL d   1       2.604   1.430   0.848  0.00  0.00     0.010 A 
ATOM      3  C2  UNL d   1       1.855   2.506   0.366  0.00  0.00     0.041 A 
ATOM      4  C3  UNL d   1       1.866   2.780  -1.015  0.00  0.00    -0.075 A 
ATOM      5  S   UNL d   1       1.024   4.044  -1.831  0.00  0.00     0.015 SA
ATOM      6  C4  UNL d   1       1.632   3.570  -3.351  0.00  0.00     0.022 A 
ATOM      7  C5  UNL d   1       2.459   2.476  -3.257  0.00  0.00     0.026 A 
ATOM      8  C6  UNL d   1       2.607   2.002  -1.909  0.00  0.00    -0.082 A 
ATOM      9  C7  UNL d   1       3.357   0.919  -1.390  0.00  0.00     0.045 A 
ENDROOT
TORSDOF 0
ENDMDL
