MODEL 1
REMARK minimizedAffinity 21.2051144
REMARK minimizedRMSD -1
REMARK  0 active torsions:
REMARK  status: ('A' for Active; 'I' for Inactive)
ROOT
ATOM      1  C   UNL d   1      -5.930  -4.651  -4.846  0.00  0.00    -0.002 A 
ATOM      2  C1  UNL d   1      -5.522  -5.487  -5.876  0.00  0.00     0.010 A 
ATOM      3  C2  UNL d   1      -4.187  -5.882  -5.984  0.00  0.00     0.041 A 
ATOM      4  C3  UNL d   1      -3.261  -5.419  -5.029  0.00  0.00    -0.075 A 
ATOM      5  S   UNL d   1      -1.574  -5.773  -4.961  0.00  0.00     0.015 SA
ATOM      6  C4  UNL d   1      -1.356  -4.823  -3.563  0.00  0.00     0.022 A 
ATOM      7  C5  UNL d   1      -2.530  -4.244  -3.144  0.00  0.00     0.026 A 
ATOM      8  C6  UNL d   1      -3.647  -4.578  -3.982  0.00  0.00    -0.082 A 
ATOM      9  C7  UNL d   1      -5.008  -4.195  -3.900  0.00  0.00     0.045 A 
ENDROOT
TORSDOF 0
ENDMDL
