MODEL 1
REMARK minimizedAffinity -3.29653716
REMARK minimizedRMSD -1
REMARK  1 active torsions:
REMARK  status: ('A' for Active; 'I' for Inactive)
REMARK    1  A    between atoms: N_2  and  C1_3 
ROOT
ATOM      1  C1  UNL d   1       3.595   5.300   3.377  0.00  0.00     0.143 A 
ATOM      2  C2  UNL d   1       3.614   4.135   2.602  0.00  0.00    -0.057 A 
ATOM      3  C3  UNL d   1       4.806   3.650   2.050  0.00  0.00     0.033 A 
ATOM      4  C4  UNL d   1       5.999   4.340   2.240  0.00  0.00    -0.042 A 
ATOM      5  C5  UNL d   1       5.999   5.514   2.985  0.00  0.00     0.033 A 
ATOM      6  C6  UNL d   1       4.807   5.989   3.539  0.00  0.00    -0.057 A 
ENDROOT
BRANCH   1   7
ATOM      7  N   UNL d   1       2.427   5.886   3.870  0.00  0.00    -0.732 N 
ATOM      8  C   UNL d   1       2.203   5.998   5.295  0.00  0.00     0.284 C 
ATOM      9  H3  UNL d   1       2.152   6.711   3.340  0.00  0.00     0.395 HD
ENDBRANCH   1   7
TORSDOF 1
ENDMDL
