MODEL 1
REMARK minimizedAffinity 4.20724487
REMARK minimizedRMSD -1
REMARK  1 active torsions:
REMARK  status: ('A' for Active; 'I' for Inactive)
REMARK    1  A    between atoms: N_2  and  C1_3 
ROOT
ATOM      1  C1  UNL d   1      -0.258  -0.981   1.535  0.00  0.00     0.143 A 
ATOM      2  C2  UNL d   1      -0.457  -1.789   2.659  0.00  0.00    -0.057 A 
ATOM      3  C3  UNL d   1       0.297  -2.952   2.860  0.00  0.00     0.033 A 
ATOM      4  C4  UNL d   1       1.246  -3.344   1.921  0.00  0.00    -0.042 A 
ATOM      5  C5  UNL d   1       1.443  -2.569   0.784  0.00  0.00     0.033 A 
ATOM      6  C6  UNL d   1       0.692  -1.405   0.593  0.00  0.00    -0.057 A 
ENDROOT
BRANCH   1   7
ATOM      7  N   UNL d   1      -1.044   0.134   1.230  0.00  0.00    -0.732 N 
ATOM      8  C   UNL d   1      -2.407  -0.028   0.771  0.00  0.00     0.284 C 
ATOM      9  H3  UNL d   1      -0.916   0.893   1.896  0.00  0.00     0.395 HD
ENDBRANCH   1   7
TORSDOF 1
ENDMDL
