MODEL 1
REMARK minimizedAffinity 4.76169252
REMARK minimizedRMSD -1
REMARK  1 active torsions:
REMARK  status: ('A' for Active; 'I' for Inactive)
REMARK    1  A    between atoms: N_2  and  C1_3 
ROOT
ATOM      1  C1  UNL d   1       2.575   5.999   3.368  0.00  0.00     0.143 A 
ATOM      2  C2  UNL d   1       1.190   5.976   3.567  0.00  0.00    -0.057 A 
ATOM      3  C3  UNL d   1       0.641   5.991   4.855  0.00  0.00     0.033 A 
ATOM      4  C4  UNL d   1       1.471   6.000   5.971  0.00  0.00    -0.042 A 
ATOM      5  C5  UNL d   1       2.851   5.998   5.797  0.00  0.00     0.033 A 
ATOM      6  C6  UNL d   1       3.393   5.990   4.509  0.00  0.00    -0.057 A 
ENDROOT
BRANCH   1   7
ATOM      7  N   UNL d   1       3.182   5.886   2.115  0.00  0.00    -0.732 N 
ATOM      8  C   UNL d   1       4.607   5.655   2.005  0.00  0.00     0.284 C 
ATOM      9  H3  UNL d   1       2.622   5.347   1.458  0.00  0.00     0.395 HD
ENDBRANCH   1   7
TORSDOF 1
ENDMDL
