MODEL 1
REMARK minimizedAffinity -2.58890462
REMARK minimizedRMSD -1
REMARK  1 active torsions:
REMARK  status: ('A' for Active; 'I' for Inactive)
REMARK    1  A    between atoms: N_2  and  C1_3 
ROOT
ATOM      1  C1  UNL d   1       0.519  -2.098   2.231  0.00  0.00     0.143 A 
ATOM      2  C2  UNL d   1       0.370  -1.229   1.145  0.00  0.00    -0.057 A 
ATOM      3  C3  UNL d   1      -0.757  -0.409   1.021  0.00  0.00     0.033 A 
ATOM      4  C4  UNL d   1      -1.773  -0.464   1.969  0.00  0.00    -0.042 A 
ATOM      5  C5  UNL d   1      -1.658  -1.338   3.044  0.00  0.00     0.033 A 
ATOM      6  C6  UNL d   1      -0.527  -2.150   3.166  0.00  0.00    -0.057 A 
ENDROOT
BRANCH   1   7
ATOM      7  N   UNL d   1       1.569  -3.010   2.360  0.00  0.00    -0.732 N 
ATOM      8  C   UNL d   1       1.867  -3.947   1.297  0.00  0.00     0.284 C 
ATOM      9  H3  UNL d   1       2.393  -2.596   2.791  0.00  0.00     0.395 HD
ENDBRANCH   1   7
TORSDOF 1
ENDMDL
