MODEL 1
REMARK minimizedAffinity -3.41280794
REMARK minimizedRMSD -1
REMARK  1 active torsions:
REMARK  status: ('A' for Active; 'I' for Inactive)
REMARK    1  A    between atoms: N_2  and  C1_3 
ROOT
ATOM      1  C1  UNL d   1       4.847   5.692   3.520  0.00  0.00     0.143 A 
ATOM      2  C2  UNL d   1       5.211   5.890   4.856  0.00  0.00    -0.057 A 
ATOM      3  C3  UNL d   1       4.245   5.999   5.864  0.00  0.00     0.033 A 
ATOM      4  C4  UNL d   1       2.892   5.941   5.548  0.00  0.00    -0.042 A 
ATOM      5  C5  UNL d   1       2.506   5.770   4.223  0.00  0.00     0.033 A 
ATOM      6  C6  UNL d   1       3.475   5.655   3.222  0.00  0.00    -0.057 A 
ENDROOT
BRANCH   1   7
ATOM      7  N   UNL d   1       5.756   5.675   2.460  0.00  0.00    -0.732 N 
ATOM      8  C   UNL d   1       5.321   5.341   1.121  0.00  0.00     0.284 C 
ATOM      9  H3  UNL d   1       6.417   6.448   2.502  0.00  0.00     0.395 HD
ENDBRANCH   1   7
TORSDOF 1
ENDMDL
