MODEL 1
REMARK minimizedAffinity 0.816296458
REMARK minimizedRMSD -1
REMARK  1 active torsions:
REMARK  status: ('A' for Active; 'I' for Inactive)
REMARK    1  A    between atoms: N_2  and  C1_3 
ROOT
ATOM      1  C1  UNL d   1       0.823  -2.938   1.720  0.00  0.00     0.143 A 
ATOM      2  C2  UNL d   1       0.394  -2.902   3.051  0.00  0.00    -0.057 A 
ATOM      3  C3  UNL d   1      -0.439  -1.878   3.518  0.00  0.00     0.033 A 
ATOM      4  C4  UNL d   1      -0.836  -0.853   2.666  0.00  0.00    -0.042 A 
ATOM      5  C5  UNL d   1      -0.401  -0.855   1.345  0.00  0.00     0.033 A 
ATOM      6  C6  UNL d   1       0.426  -1.883   0.883  0.00  0.00    -0.057 A 
ENDROOT
BRANCH   1   7
ATOM      7  N   UNL d   1       1.732  -3.874   1.221  0.00  0.00    -0.732 N 
ATOM      8  C   UNL d   1       2.118  -5.022   2.013  0.00  0.00     0.284 C 
ATOM      9  H3  UNL d   1       1.575  -4.082   0.237  0.00  0.00     0.395 HD
ENDBRANCH   1   7
TORSDOF 1
ENDMDL
