MODEL 1
REMARK minimizedAffinity 0.92391783
REMARK minimizedRMSD -1
REMARK  1 active torsions:
REMARK  status: ('A' for Active; 'I' for Inactive)
REMARK    1  A    between atoms: N_2  and  C1_3 
ROOT
ATOM      1  C1  UNL d   1       0.430  -0.091   0.760  0.00  0.00     0.143 A 
ATOM      2  C2  UNL d   1       0.282  -0.710   2.005  0.00  0.00    -0.057 A 
ATOM      3  C3  UNL d   1      -0.985  -1.002   2.525  0.00  0.00     0.033 A 
ATOM      4  C4  UNL d   1      -2.131  -0.652   1.818  0.00  0.00    -0.042 A 
ATOM      5  C5  UNL d   1      -2.008  -0.014   0.589  0.00  0.00     0.033 A 
ATOM      6  C6  UNL d   1      -0.740   0.269   0.073  0.00  0.00    -0.057 A 
ENDROOT
BRANCH   1   7
ATOM      7  N   UNL d   1       1.659   0.314   0.233  0.00  0.00    -0.732 N 
ATOM      8  C   UNL d   1       2.623   1.005   1.062  0.00  0.00     0.284 C 
ATOM      9  H3  UNL d   1       2.066  -0.384  -0.385  0.00  0.00     0.395 HD
ENDBRANCH   1   7
TORSDOF 1
ENDMDL
