MODEL 1
REMARK minimizedAffinity 0.274093211
REMARK minimizedRMSD -1
REMARK  0 active torsions:
REMARK  status: ('A' for Active; 'I' for Inactive)
ROOT
ATOM      1  C   UNL d   1       4.092   5.961   2.325  0.00  0.00     0.078 C 
ATOM      2  C1  UNL d   1       3.203   5.980   3.533  0.00  0.00    -0.077 A 
ATOM      3  C2  UNL d   1       3.743   5.991   4.825  0.00  0.00    -0.001 A 
ATOM      4  C3  UNL d   1       2.903   6.000   5.941  0.00  0.00     0.003 A 
ATOM      5  C4  UNL d   1       1.520   5.996   5.775  0.00  0.00    -0.005 A 
ATOM      6  C5  UNL d   1       0.974   5.983   4.493  0.00  0.00     0.003 A 
ATOM      7  C6  UNL d   1       1.811   5.974   3.377  0.00  0.00    -0.001 A 
ENDROOT
TORSDOF 0
ENDMDL
