MODEL 1
REMARK minimizedAffinity 7.25056982
REMARK minimizedRMSD -1
REMARK  0 active torsions:
REMARK  status: ('A' for Active; 'I' for Inactive)
ROOT
ATOM      1  C   UNL d   1      -3.971  -0.694   1.036  0.00  0.00     0.078 C 
ATOM      2  C1  UNL d   1      -2.516  -0.330   1.041  0.00  0.00    -0.077 A 
ATOM      3  C2  UNL d   1      -1.543  -1.256   1.438  0.00  0.00    -0.001 A 
ATOM      4  C3  UNL d   1      -0.193  -0.900   1.447  0.00  0.00     0.003 A 
ATOM      5  C4  UNL d   1       0.196   0.381   1.061  0.00  0.00    -0.005 A 
ATOM      6  C5  UNL d   1      -0.765   1.309   0.666  0.00  0.00     0.003 A 
ATOM      7  C6  UNL d   1      -2.116   0.955   0.656  0.00  0.00    -0.001 A 
ENDROOT
TORSDOF 0
ENDMDL
