MODEL 1
REMARK minimizedAffinity -0.565680802
REMARK minimizedRMSD -1
REMARK  0 active torsions:
REMARK  status: ('A' for Active; 'I' for Inactive)
ROOT
ATOM      1  C   UNL d   1       2.137  -1.653   0.716  0.00  0.00     0.078 C 
ATOM      2  C1  UNL d   1       0.735  -1.187   0.975  0.00  0.00    -0.077 A 
ATOM      3  C2  UNL d   1       0.228  -1.115   2.278  0.00  0.00    -0.001 A 
ATOM      4  C3  UNL d   1      -1.082  -0.689   2.504  0.00  0.00     0.003 A 
ATOM      5  C4  UNL d   1      -1.896  -0.332   1.431  0.00  0.00    -0.005 A 
ATOM      6  C5  UNL d   1      -1.401  -0.402   0.130  0.00  0.00     0.003 A 
ATOM      7  C6  UNL d   1      -0.091  -0.828  -0.097  0.00  0.00    -0.001 A 
ENDROOT
TORSDOF 0
ENDMDL
