MODEL 1
REMARK minimizedAffinity 3.49917126
REMARK minimizedRMSD -1
REMARK  0 active torsions:
REMARK  status: ('A' for Active; 'I' for Inactive)
ROOT
ATOM      1  C   UNL d   1       2.524  -1.361   1.455  0.00  0.00     0.078 C 
ATOM      2  C1  UNL d   1       1.151  -0.973   0.994  0.00  0.00    -0.077 A 
ATOM      3  C2  UNL d   1       0.861  -0.837  -0.369  0.00  0.00    -0.001 A 
ATOM      4  C3  UNL d   1      -0.419  -0.466  -0.784  0.00  0.00     0.003 A 
ATOM      5  C4  UNL d   1      -1.418  -0.226   0.157  0.00  0.00    -0.005 A 
ATOM      6  C5  UNL d   1      -1.138  -0.357   1.516  0.00  0.00     0.003 A 
ATOM      7  C6  UNL d   1       0.141  -0.729   1.933  0.00  0.00    -0.001 A 
ENDROOT
TORSDOF 0
ENDMDL
