MODEL 1
REMARK minimizedAffinity -1.34187925
REMARK minimizedRMSD -1
REMARK  0 active torsions:
REMARK  status: ('A' for Active; 'I' for Inactive)
ROOT
ATOM      1  C   UNL d   1      -2.989  -2.865   3.722  0.00  0.00     0.078 C 
ATOM      2  C1  UNL d   1      -2.315  -1.866   2.831  0.00  0.00    -0.077 A 
ATOM      3  C2  UNL d   1      -3.054  -1.083   1.936  0.00  0.00    -0.001 A 
ATOM      4  C3  UNL d   1      -2.412  -0.163   1.105  0.00  0.00     0.003 A 
ATOM      5  C4  UNL d   1      -1.027  -0.019   1.160  0.00  0.00    -0.005 A 
ATOM      6  C5  UNL d   1      -0.283  -0.796   2.045  0.00  0.00     0.003 A 
ATOM      7  C6  UNL d   1      -0.923  -1.716   2.876  0.00  0.00    -0.001 A 
ENDROOT
TORSDOF 0
ENDMDL
