MODEL 1
REMARK minimizedAffinity -2.35660839
REMARK minimizedRMSD -1
REMARK  0 active torsions:
REMARK  status: ('A' for Active; 'I' for Inactive)
ROOT
ATOM      1  C   UNL d   1      -4.547   3.076  -3.252  0.00  0.00     0.078 C 
ATOM      2  C1  UNL d   1      -3.131   2.595  -3.143  0.00  0.00    -0.077 A 
ATOM      3  C2  UNL d   1      -2.843   1.286  -2.735  0.00  0.00    -0.001 A 
ATOM      4  C3  UNL d   1      -1.520   0.855  -2.628  0.00  0.00     0.003 A 
ATOM      5  C4  UNL d   1      -0.474   1.726  -2.927  0.00  0.00    -0.005 A 
ATOM      6  C5  UNL d   1      -0.751   3.031  -3.331  0.00  0.00     0.003 A 
ATOM      7  C6  UNL d   1      -2.074   3.464  -3.439  0.00  0.00    -0.001 A 
ENDROOT
TORSDOF 0
ENDMDL
