MODEL 1
REMARK minimizedAffinity -3.1807363
REMARK minimizedRMSD -1
REMARK  0 active torsions:
REMARK  status: ('A' for Active; 'I' for Inactive)
ROOT
ATOM      1  N1  IND d   1       3.036  -0.354   0.927  0.00  0.00    -0.196 N 
ATOM      2  C2  IND d   1       3.438  -1.621   0.608  0.00  0.00     0.054 A 
ATOM      3  C3  IND d   1       2.436  -2.293  -0.002  0.00  0.00    -0.031 A 
ATOM      4  C4  IND d   1       0.088  -1.475  -0.669  0.00  0.00     0.051 A 
ATOM      5  C5  IND d   1      -0.752  -0.402  -0.556  0.00  0.00    -0.031 A 
ATOM      6  C6  IND d   1      -0.363   0.765   0.068  0.00  0.00     0.015 A 
ATOM      7  C7  IND d   1       0.890   0.909   0.594  0.00  0.00    -0.016 A 
ATOM      8  C8  IND d   1       1.743  -0.180   0.487  0.00  0.00    -0.047 A 
ATOM      9  C9  IND d   1       1.339  -1.383  -0.107  0.00  0.00    -0.096 A 
ATOM     10  HN1 IND d   1       3.512   0.236   1.334  0.00  0.00     0.298 HD
ENDROOT
TORSDOF 0
ENDMDL
