MODEL 1
REMARK minimizedAffinity -2.74093103
REMARK minimizedRMSD -1
REMARK  0 active torsions:
REMARK  status: ('A' for Active; 'I' for Inactive)
ROOT
ATOM      1  N1  IND d   1      -0.542  -0.578  -0.861  0.00  0.00    -0.196 N 
ATOM      2  C2  IND d   1      -1.168   0.598  -0.556  0.00  0.00     0.054 A 
ATOM      3  C3  IND d   1      -0.457   1.283   0.368  0.00  0.00    -0.031 A 
ATOM      4  C4  IND d   1       1.811   0.710   1.442  0.00  0.00     0.051 A 
ATOM      5  C5  IND d   1       2.754  -0.277   1.505  0.00  0.00    -0.031 A 
ATOM      6  C6  IND d   1       2.646  -1.438   0.766  0.00  0.00     0.015 A 
ATOM      7  C7  IND d   1       1.591  -1.650  -0.076  0.00  0.00    -0.016 A 
ATOM      8  C8  IND d   1       0.629  -0.653  -0.138  0.00  0.00    -0.047 A 
ATOM      9  C9  IND d   1       0.711   0.508   0.641  0.00  0.00    -0.096 A 
ATOM     10  HN1 IND d   1      -0.830  -1.172  -1.413  0.00  0.00     0.298 HD
ENDROOT
TORSDOF 0
ENDMDL
