MODEL 1
REMARK minimizedAffinity -4.22718668
REMARK minimizedRMSD -1
REMARK  0 active torsions:
REMARK  status: ('A' for Active; 'I' for Inactive)
ROOT
ATOM      1  N1  IND d   1       2.100   0.252   1.017  0.00  0.00    -0.196 N 
ATOM      2  C2  IND d   1       2.772  -0.921   0.813  0.00  0.00     0.054 A 
ATOM      3  C3  IND d   1       1.972  -1.820   0.197  0.00  0.00    -0.031 A 
ATOM      4  C4  IND d   1      -0.441  -1.547  -0.658  0.00  0.00     0.051 A 
ATOM      5  C5  IND d   1      -1.487  -0.667  -0.669  0.00  0.00    -0.031 A 
ATOM      6  C6  IND d   1      -1.388   0.590  -0.109  0.00  0.00     0.015 A 
ATOM      7  C7  IND d   1      -0.230   1.021   0.475  0.00  0.00    -0.016 A 
ATOM      8  C8  IND d   1       0.832   0.128   0.494  0.00  0.00    -0.047 A 
ATOM      9  C9  IND d   1       0.724  -1.165  -0.035  0.00  0.00    -0.096 A 
ATOM     10  HN1 IND d   1       2.416   0.950   1.408  0.00  0.00     0.298 HD
ENDROOT
TORSDOF 0
ENDMDL
