MODEL 1
REMARK minimizedAffinity -3.77099681
REMARK minimizedRMSD -1
REMARK  0 active torsions:
REMARK  status: ('A' for Active; 'I' for Inactive)
ROOT
ATOM      1  N1  IND d   1      -0.679   0.670  -0.108  0.00  0.00    -0.196 N 
ATOM      2  C2  IND d   1      -1.322  -0.177  -0.967  0.00  0.00     0.054 A 
ATOM      3  C3  IND d   1      -0.505  -1.193  -1.324  0.00  0.00    -0.031 A 
ATOM      4  C4  IND d   1       1.890  -1.720  -0.540  0.00  0.00     0.051 A 
ATOM      5  C5  IND d   1       2.912  -1.215   0.214  0.00  0.00    -0.031 A 
ATOM      6  C6  IND d   1       2.785  -0.034   0.916  0.00  0.00     0.015 A 
ATOM      7  C7  IND d   1       1.623   0.684   0.899  0.00  0.00    -0.016 A 
ATOM      8  C8  IND d   1       0.586   0.179   0.128  0.00  0.00    -0.047 A 
ATOM      9  C9  IND d   1       0.723  -0.997  -0.620  0.00  0.00    -0.096 A 
ATOM     10  HN1 IND d   1      -1.009   1.389   0.229  0.00  0.00     0.298 HD
ENDROOT
TORSDOF 0
ENDMDL
