MODEL 1
REMARK minimizedAffinity -4.74851799
REMARK minimizedRMSD -1
REMARK  0 active torsions:
REMARK  status: ('A' for Active; 'I' for Inactive)
ROOT
ATOM      1  N1  IND d   1       0.350   1.636  -0.176  0.00  0.00    -0.196 N 
ATOM      2  C2  IND d   1      -0.633   1.341  -1.079  0.00  0.00     0.054 A 
ATOM      3  C3  IND d   1      -0.625   0.020  -1.368  0.00  0.00    -0.031 A 
ATOM      4  C4  IND d   1       0.847  -1.857  -0.399  0.00  0.00     0.051 A 
ATOM      5  C5  IND d   1       1.912  -2.071   0.431  0.00  0.00    -0.031 A 
ATOM      6  C6  IND d   1       2.522  -1.040   1.116  0.00  0.00     0.015 A 
ATOM      7  C7  IND d   1       2.079   0.248   1.006  0.00  0.00    -0.016 A 
ATOM      8  C8  IND d   1       1.003   0.470   0.159  0.00  0.00    -0.047 A 
ATOM      9  C9  IND d   1       0.407  -0.566  -0.572  0.00  0.00    -0.096 A 
ATOM     10  HN1 IND d   1       0.531   2.419   0.131  0.00  0.00     0.298 HD
ENDROOT
TORSDOF 0
ENDMDL
