MODEL 1
REMARK minimizedAffinity 0.277173221
REMARK minimizedRMSD -1
REMARK  0 active torsions:
REMARK  status: ('A' for Active; 'I' for Inactive)
ROOT
ATOM      1  N1  IND d   1       0.187   1.778  -0.020  0.00  0.00    -0.196 N 
ATOM      2  C2  IND d   1      -0.843   0.880  -0.022  0.00  0.00     0.054 A 
ATOM      3  C3  IND d   1      -0.367  -0.383  -0.110  0.00  0.00    -0.031 A 
ATOM      4  C4  IND d   1       2.069  -1.212  -0.160  0.00  0.00     0.051 A 
ATOM      5  C5  IND d   1       3.359  -0.763  -0.216  0.00  0.00    -0.031 A 
ATOM      6  C6  IND d   1       3.664   0.583  -0.207  0.00  0.00     0.015 A 
ATOM      7  C7  IND d   1       2.686   1.534  -0.129  0.00  0.00    -0.016 A 
ATOM      8  C8  IND d   1       1.375   1.082  -0.079  0.00  0.00    -0.047 A 
ATOM      9  C9  IND d   1       1.058  -0.281  -0.131  0.00  0.00    -0.096 A 
ATOM     10  HN1 IND d   1       0.107   2.633   0.012  0.00  0.00     0.298 HD
ENDROOT
TORSDOF 0
ENDMDL
