MODEL 1
REMARK minimizedAffinity -1.99678326
REMARK minimizedRMSD -1
REMARK  0 active torsions:
REMARK  status: ('A' for Active; 'I' for Inactive)
ROOT
ATOM      1  N1  IND d   1      -0.135  -0.720  -0.650  0.00  0.00    -0.196 N 
ATOM      2  C2  IND d   1       0.158  -1.939  -1.195  0.00  0.00     0.054 A 
ATOM      3  C3  IND d   1       1.394  -2.337  -0.821  0.00  0.00    -0.031 A 
ATOM      4  C4  IND d   1       3.071  -1.195   0.763  0.00  0.00     0.051 A 
ATOM      5  C5  IND d   1       3.267  -0.047   1.478  0.00  0.00    -0.031 A 
ATOM      6  C6  IND d   1       2.319   0.955   1.523  0.00  0.00     0.015 A 
ATOM      7  C7  IND d   1       1.130   0.840   0.861  0.00  0.00    -0.016 A 
ATOM      8  C8  IND d   1       0.930  -0.322   0.129  0.00  0.00    -0.047 A 
ATOM      9  C9  IND d   1       1.906  -1.323   0.044  0.00  0.00    -0.096 A 
ATOM     10  HN1 IND d   1      -0.861  -0.277  -0.772  0.00  0.00     0.298 HD
ENDROOT
TORSDOF 0
ENDMDL
