MODEL 1
REMARK minimizedAffinity -5.15344238
REMARK minimizedRMSD -1
REMARK  0 active torsions:
REMARK  status: ('A' for Active; 'I' for Inactive)
ROOT
ATOM      1  N1  IND d   1      -0.218   0.736   0.012  0.00  0.00    -0.196 N 
ATOM      2  C2  IND d   1      -0.966  -0.330  -0.405  0.00  0.00     0.054 A 
ATOM      3  C3  IND d   1      -0.194  -1.435  -0.507  0.00  0.00    -0.031 A 
ATOM      4  C4  IND d   1       2.298  -1.747   0.058  0.00  0.00     0.051 A 
ATOM      5  C5  IND d   1       3.411  -1.052   0.440  0.00  0.00    -0.031 A 
ATOM      6  C6  IND d   1       3.370   0.301   0.707  0.00  0.00     0.015 A 
ATOM      7  C7  IND d   1       2.206   1.011   0.613  0.00  0.00    -0.016 A 
ATOM      8  C8  IND d   1       1.075   0.310   0.218  0.00  0.00    -0.047 A 
ATOM      9  C9  IND d   1       1.120  -1.055  -0.096  0.00  0.00    -0.096 A 
ATOM     10  HN1 IND d   1      -0.508   1.538   0.127  0.00  0.00     0.298 HD
ENDROOT
TORSDOF 0
ENDMDL
