MODEL 1
REMARK minimizedAffinity -1.24697876
REMARK minimizedRMSD -1
REMARK  0 active torsions:
REMARK  status: ('A' for Active; 'I' for Inactive)
ROOT
ATOM      1  N1  IND d   1      -0.185   1.285  -0.206  0.00  0.00    -0.196 N 
ATOM      2  C2  IND d   1      -1.329   0.660  -0.616  0.00  0.00     0.054 A 
ATOM      3  C3  IND d   1      -1.174  -0.682  -0.569  0.00  0.00    -0.031 A 
ATOM      4  C4  IND d   1       0.836  -2.069   0.246  0.00  0.00     0.051 A 
ATOM      5  C5  IND d   1       2.125  -1.944   0.681  0.00  0.00    -0.031 A 
ATOM      6  C6  IND d   1       2.722  -0.711   0.849  0.00  0.00     0.015 A 
ATOM      7  C7  IND d   1       2.044   0.448   0.598  0.00  0.00    -0.016 A 
ATOM      8  C8  IND d   1       0.737   0.325   0.148  0.00  0.00    -0.047 A 
ATOM      9  C9  IND d   1       0.140  -0.925  -0.064  0.00  0.00    -0.096 A 
ATOM     10  HN1 IND d   1      -0.061   2.136  -0.175  0.00  0.00     0.298 HD
ENDROOT
TORSDOF 0
ENDMDL
