MODEL 1
REMARK minimizedAffinity -5.00407934
REMARK minimizedRMSD -1
REMARK  0 active torsions:
REMARK  status: ('A' for Active; 'I' for Inactive)
ROOT
ATOM      1  N1  IND d   1       0.141   1.488   0.380  0.00  0.00    -0.196 N 
ATOM      2  C2  IND d   1      -1.105   1.133  -0.056  0.00  0.00     0.054 A 
ATOM      3  C3  IND d   1      -1.183  -0.207  -0.216  0.00  0.00    -0.031 A 
ATOM      4  C4  IND d   1       0.579  -2.019   0.277  0.00  0.00     0.051 A 
ATOM      5  C5  IND d   1       1.882  -2.179   0.656  0.00  0.00    -0.031 A 
ATOM      6  C6  IND d   1       2.687  -1.103   0.972  0.00  0.00     0.015 A 
ATOM      7  C7  IND d   1       2.213   0.177   0.931  0.00  0.00    -0.016 A 
ATOM      8  C8  IND d   1       0.893   0.344   0.539  0.00  0.00    -0.047 A 
ATOM      9  C9  IND d   1       0.083  -0.740   0.176  0.00  0.00    -0.096 A 
ATOM     10  HN1 IND d   1       0.410   2.291   0.530  0.00  0.00     0.298 HD
ENDROOT
TORSDOF 0
ENDMDL
