MODEL 1
REMARK minimizedAffinity 2.47706056
REMARK minimizedRMSD -1
REMARK  0 active torsions:
REMARK  status: ('A' for Active; 'I' for Inactive)
ROOT
ATOM      1  C   UNL d   1       2.402  -2.632   1.263  0.00  0.00    -0.002 A 
ATOM      2  C1  UNL d   1       2.133  -1.654   0.316  0.00  0.00     0.010 A 
ATOM      3  C2  UNL d   1       1.038  -0.801   0.467  0.00  0.00     0.041 A 
ATOM      4  C3  UNL d   1       0.210  -0.948   1.598  0.00  0.00    -0.075 A 
ATOM      5  S   UNL d   1      -1.186  -0.017   1.993  0.00  0.00     0.015 SA
ATOM      6  C4  UNL d   1      -1.458  -0.895   3.428  0.00  0.00     0.022 A 
ATOM      7  C5  UNL d   1      -0.516  -1.879   3.617  0.00  0.00     0.026 A 
ATOM      8  C6  UNL d   1       0.461  -1.925   2.566  0.00  0.00    -0.082 A 
ATOM      9  C7  UNL d   1       1.579  -2.775   2.383  0.00  0.00     0.045 A 
ENDROOT
TORSDOF 0
ENDMDL
