MODEL 1
REMARK minimizedAffinity 7.25720882
REMARK minimizedRMSD -1
REMARK  0 active torsions:
REMARK  status: ('A' for Active; 'I' for Inactive)
ROOT
ATOM      1  C   UNL d   1       1.815  -0.189   2.525  0.00  0.00    -0.002 A 
ATOM      2  C1  UNL d   1       0.664  -0.125   3.298  0.00  0.00     0.010 A 
ATOM      3  C2  UNL d   1      -0.271  -1.161   3.267  0.00  0.00     0.041 A 
ATOM      4  C3  UNL d   1      -0.026  -2.275   2.440  0.00  0.00    -0.075 A 
ATOM      5  S   UNL d   1      -1.030  -3.663   2.242  0.00  0.00     0.015 SA
ATOM      6  C4  UNL d   1       0.046  -4.375   1.129  0.00  0.00     0.022 A 
ATOM      7  C5  UNL d   1       1.149  -3.587   0.901  0.00  0.00     0.026 A 
ATOM      8  C6  UNL d   1       1.126  -2.364   1.654  0.00  0.00    -0.082 A 
ATOM      9  C7  UNL d   1       2.054  -1.296   1.706  0.00  0.00     0.045 A 
ENDROOT
TORSDOF 0
ENDMDL
