MODEL 1
REMARK minimizedAffinity -3.35091949
REMARK minimizedRMSD -1
REMARK  0 active torsions:
REMARK  status: ('A' for Active; 'I' for Inactive)
ROOT
ATOM      1  C   UNL d   1      -1.552   5.044   4.501  0.00  0.00    -0.002 A 
ATOM      2  C1  UNL d   1      -2.361   5.997   3.899  0.00  0.00     0.010 A 
ATOM      3  C2  UNL d   1      -3.752   5.894   3.968  0.00  0.00     0.041 A 
ATOM      4  C3  UNL d   1      -4.321   4.807   4.661  0.00  0.00    -0.075 A 
ATOM      5  S   UNL d   1      -5.999   4.476   4.876  0.00  0.00     0.015 SA
ATOM      6  C4  UNL d   1      -5.682   3.062   5.774  0.00  0.00     0.022 A 
ATOM      7  C5  UNL d   1      -4.333   2.833   5.915  0.00  0.00     0.026 A 
ATOM      8  C6  UNL d   1      -3.527   3.835   5.276  0.00  0.00    -0.082 A 
ATOM      9  C7  UNL d   1      -2.120   3.968   5.188  0.00  0.00     0.045 A 
ENDROOT
TORSDOF 0
ENDMDL
