MODEL 1
REMARK minimizedAffinity 13.6129503
REMARK minimizedRMSD -1
REMARK  0 active torsions:
REMARK  status: ('A' for Active; 'I' for Inactive)
ROOT
ATOM      1  C   UNL d   1       1.422  -1.257  -1.283  0.00  0.00    -0.002 A 
ATOM      2  C1  UNL d   1       0.175  -1.304  -1.890  0.00  0.00     0.010 A 
ATOM      3  C2  UNL d   1      -0.987  -1.392  -1.121  0.00  0.00     0.041 A 
ATOM      4  C3  UNL d   1      -0.874  -1.430   0.283  0.00  0.00    -0.075 A 
ATOM      5  S   UNL d   1      -2.159  -1.536   1.427  0.00  0.00     0.015 SA
ATOM      6  C4  UNL d   1      -1.084  -1.521   2.749  0.00  0.00     0.022 A 
ATOM      7  C5  UNL d   1       0.228  -1.438   2.346  0.00  0.00     0.026 A 
ATOM      8  C6  UNL d   1       0.371  -1.384   0.918  0.00  0.00    -0.082 A 
ATOM      9  C7  UNL d   1       1.530  -1.296   0.110  0.00  0.00     0.045 A 
ENDROOT
TORSDOF 0
ENDMDL
