MODEL 1
REMARK minimizedAffinity 7.45081282
REMARK minimizedRMSD -1
REMARK  0 active torsions:
REMARK  status: ('A' for Active; 'I' for Inactive)
ROOT
ATOM      1  C   UNL d   1      -1.865   1.889  -3.423  0.00  0.00    -0.002 A 
ATOM      2  C1  UNL d   1      -0.878   2.439  -4.227  0.00  0.00     0.010 A 
ATOM      3  C2  UNL d   1      -1.062   3.688  -4.824  0.00  0.00     0.041 A 
ATOM      4  C3  UNL d   1      -2.267   4.381  -4.596  0.00  0.00    -0.075 A 
ATOM      5  S   UNL d   1      -2.714   5.924  -5.223  0.00  0.00     0.015 SA
ATOM      6  C4  UNL d   1      -4.226   5.888  -4.438  0.00  0.00     0.022 A 
ATOM      7  C5  UNL d   1      -4.403   4.735  -3.711  0.00  0.00     0.026 A 
ATOM      8  C6  UNL d   1      -3.277   3.847  -3.790  0.00  0.00    -0.082 A 
ATOM      9  C7  UNL d   1      -3.060   2.579  -3.199  0.00  0.00     0.045 A 
ENDROOT
TORSDOF 0
ENDMDL
