MODEL 1
REMARK minimizedAffinity 9.95698261
REMARK minimizedRMSD -1
REMARK  0 active torsions:
REMARK  status: ('A' for Active; 'I' for Inactive)
ROOT
ATOM      1  C   UNL d   1      -5.326   4.376  -4.653  0.00  0.00    -0.002 A 
ATOM      2  C1  UNL d   1      -5.554   3.164  -5.288  0.00  0.00     0.010 A 
ATOM      3  C2  UNL d   1      -4.620   2.130  -5.202  0.00  0.00     0.041 A 
ATOM      4  C3  UNL d   1      -3.441   2.336  -4.458  0.00  0.00    -0.075 A 
ATOM      5  S   UNL d   1      -2.157   1.213  -4.214  0.00  0.00     0.015 SA
ATOM      6  C4  UNL d   1      -1.274   2.315  -3.260  0.00  0.00     0.022 A 
ATOM      7  C5  UNL d   1      -1.929   3.516  -3.121  0.00  0.00     0.026 A 
ATOM      8  C6  UNL d   1      -3.189   3.548  -3.809  0.00  0.00    -0.082 A 
ATOM      9  C7  UNL d   1      -4.155   4.577  -3.916  0.00  0.00     0.045 A 
ENDROOT
TORSDOF 0
ENDMDL
