MODEL 1
REMARK minimizedAffinity 11.6465073
REMARK minimizedRMSD -1
REMARK  0 active torsions:
REMARK  status: ('A' for Active; 'I' for Inactive)
ROOT
ATOM      1  C   UNL d   1       5.553   3.904  -5.598  0.00  0.00    -0.002 A 
ATOM      2  C1  UNL d   1       5.582   5.272  -5.826  0.00  0.00     0.010 A 
ATOM      3  C2  UNL d   1       4.394   5.998  -5.942  0.00  0.00     0.041 A 
ATOM      4  C3  UNL d   1       3.166   5.318  -5.823  0.00  0.00    -0.075 A 
ATOM      5  S   UNL d   1       1.586   6.000  -5.929  0.00  0.00     0.015 SA
ATOM      6  C4  UNL d   1       0.837   4.491  -5.674  0.00  0.00     0.022 A 
ATOM      7  C5  UNL d   1       1.754   3.480  -5.510  0.00  0.00     0.026 A 
ATOM      8  C6  UNL d   1       3.112   3.940  -5.592  0.00  0.00    -0.082 A 
ATOM      9  C7  UNL d   1       4.333   3.233  -5.480  0.00  0.00     0.045 A 
ENDROOT
TORSDOF 0
ENDMDL
