MODEL 1
REMARK minimizedAffinity -4.56120539
REMARK minimizedRMSD -1
REMARK  0 active torsions:
REMARK  status: ('A' for Active; 'I' for Inactive)
ROOT
ATOM      1  C4' PXY d   1       1.530   0.616   0.503  0.00  0.00     0.077 C 
ATOM      2  C1' PXY d   1      -3.472  -2.121  -0.447  0.00  0.00     0.077 C 
ATOM      3  C1  PXY d   1      -2.160  -1.400  -0.210  0.00  0.00    -0.082 A 
ATOM      4  C2  PXY d   1      -1.399  -1.746   0.815  0.00  0.00     0.003 A 
ATOM      5  C3  PXY d   1      -0.224  -1.083   1.062  0.00  0.00     0.003 A 
ATOM      6  C4  PXY d   1       0.201  -0.091   0.220  0.00  0.00    -0.082 A 
ATOM      7  C5  PXY d   1      -0.565   0.261  -0.834  0.00  0.00     0.003 A 
ATOM      8  C6  PXY d   1      -1.773  -0.396  -1.044  0.00  0.00     0.003 A 
ENDROOT
TORSDOF 0
ENDMDL
