MODEL 1
REMARK minimizedAffinity -5.64888382
REMARK minimizedRMSD -1
REMARK  0 active torsions:
REMARK  status: ('A' for Active; 'I' for Inactive)
ROOT
ATOM      1  C4' PXY d   1       1.168   0.193   0.398  0.00  0.00     0.077 C 
ATOM      2  C1' PXY d   1      -4.239  -1.848   0.510  0.00  0.00     0.077 C 
ATOM      3  C1  PXY d   1      -2.820  -1.313   0.494  0.00  0.00    -0.082 A 
ATOM      4  C2  PXY d   1      -2.400  -0.605  -0.542  0.00  0.00     0.003 A 
ATOM      5  C3  PXY d   1      -1.111  -0.141  -0.587  0.00  0.00     0.003 A 
ATOM      6  C4  PXY d   1      -0.259  -0.359   0.462  0.00  0.00    -0.082 A 
ATOM      7  C5  PXY d   1      -0.683  -1.072   1.526  0.00  0.00     0.003 A 
ATOM      8  C6  PXY d   1      -1.983  -1.569   1.535  0.00  0.00     0.003 A 
ENDROOT
TORSDOF 0
ENDMDL
