MODEL 1
REMARK minimizedAffinity -3.74173999
REMARK minimizedRMSD -1
REMARK  0 active torsions:
REMARK  status: ('A' for Active; 'I' for Inactive)
ROOT
ATOM      1  C4' PXY d   1       1.358   0.248  -0.079  0.00  0.00     0.077 C 
ATOM      2  C1' PXY d   1      -3.838  -2.284   0.015  0.00  0.00     0.077 C 
ATOM      3  C1  PXY d   1      -2.477  -1.616  -0.022  0.00  0.00    -0.082 A 
ATOM      4  C2  PXY d   1      -1.527  -2.021   0.805  0.00  0.00     0.003 A 
ATOM      5  C3  PXY d   1      -0.301  -1.406   0.807  0.00  0.00     0.003 A 
ATOM      6  C4  PXY d   1      -0.028  -0.403  -0.084  0.00  0.00    -0.082 A 
ATOM      7  C5  PXY d   1      -0.988   0.008  -0.938  0.00  0.00     0.003 A 
ATOM      8  C6  PXY d   1      -2.239  -0.601  -0.896  0.00  0.00     0.003 A 
ENDROOT
TORSDOF 0
ENDMDL
