MODEL 1
REMARK minimizedAffinity -5.30474424
REMARK minimizedRMSD -1
REMARK  0 active torsions:
REMARK  status: ('A' for Active; 'I' for Inactive)
ROOT
ATOM      1  C4' PXY d   1      -3.751  -1.730   0.891  0.00  0.00     0.077 C 
ATOM      2  C1' PXY d   1       1.530   0.427  -0.045  0.00  0.00     0.077 C 
ATOM      3  C1  PXY d   1       0.150  -0.150   0.205  0.00  0.00    -0.082 A 
ATOM      4  C2  PXY d   1      -0.882   0.296  -0.493  0.00  0.00     0.003 A 
ATOM      5  C3  PXY d   1      -2.141  -0.192  -0.257  0.00  0.00     0.003 A 
ATOM      6  C4  PXY d   1      -2.339  -1.184   0.665  0.00  0.00    -0.082 A 
ATOM      7  C5  PXY d   1      -1.290  -1.652   1.374  0.00  0.00     0.003 A 
ATOM      8  C6  PXY d   1      -0.026  -1.114   1.149  0.00  0.00     0.003 A 
ENDROOT
TORSDOF 0
ENDMDL
