MODEL 1
REMARK minimizedAffinity -5.3724246
REMARK minimizedRMSD -1
REMARK  0 active torsions:
REMARK  status: ('A' for Active; 'I' for Inactive)
ROOT
ATOM      1  C4' PXY d   1       1.536   0.423  -0.051  0.00  0.00     0.077 C 
ATOM      2  C1' PXY d   1      -3.636  -2.121   0.394  0.00  0.00     0.077 C 
ATOM      3  C1  PXY d   1      -2.282  -1.452   0.265  0.00  0.00    -0.082 A 
ATOM      4  C2  PXY d   1      -1.336  -1.712   1.153  0.00  0.00     0.003 A 
ATOM      5  C3  PXY d   1      -0.116  -1.091   1.069  0.00  0.00     0.003 A 
ATOM      6  C4  PXY d   1       0.156  -0.236   0.035  0.00  0.00    -0.082 A 
ATOM      7  C5  PXY d   1      -0.800   0.026  -0.881  0.00  0.00     0.003 A 
ATOM      8  C6  PXY d   1      -2.045  -0.582  -0.755  0.00  0.00     0.003 A 
ENDROOT
TORSDOF 0
ENDMDL
