MODEL 1
REMARK minimizedAffinity -5.91726494
REMARK minimizedRMSD -1
REMARK  0 active torsions:
REMARK  status: ('A' for Active; 'I' for Inactive)
ROOT
ATOM      1  C4' PXY d   1       1.174   0.157   0.010  0.00  0.00     0.077 C 
ATOM      2  C1' PXY d   1      -4.156  -1.915   0.856  0.00  0.00     0.077 C 
ATOM      3  C1  PXY d   1      -2.761  -1.370   0.621  0.00  0.00    -0.082 A 
ATOM      4  C2  PXY d   1      -1.795  -1.654   1.480  0.00  0.00     0.003 A 
ATOM      5  C3  PXY d   1      -0.535  -1.144   1.300  0.00  0.00     0.003 A 
ATOM      6  C4  PXY d   1      -0.248  -0.379   0.202  0.00  0.00    -0.082 A 
ATOM      7  C5  PXY d   1      -1.225  -0.093  -0.684  0.00  0.00     0.003 A 
ATOM      8  C6  PXY d   1      -2.507  -0.587  -0.462  0.00  0.00     0.003 A 
ENDROOT
TORSDOF 0
ENDMDL
