MODEL 1
REMARK minimizedAffinity -3.62004805
REMARK minimizedRMSD -1
REMARK  0 active torsions:
REMARK  status: ('A' for Active; 'I' for Inactive)
ROOT
ATOM      1  C4' PXY d   1       0.994   0.483  -0.231  0.00  0.00     0.077 C 
ATOM      2  C1' PXY d   1      -4.076  -2.243   0.300  0.00  0.00     0.077 C 
ATOM      3  C1  PXY d   1      -2.745  -1.533   0.148  0.00  0.00    -0.082 A 
ATOM      4  C2  PXY d   1      -2.042  -1.225   1.226  0.00  0.00     0.003 A 
ATOM      5  C3  PXY d   1      -0.852  -0.555   1.109  0.00  0.00     0.003 A 
ATOM      6  C4  PXY d   1      -0.351  -0.243  -0.126  0.00  0.00    -0.082 A 
ATOM      7  C5  PXY d   1      -1.057  -0.562  -1.231  0.00  0.00     0.003 A 
ATOM      8  C6  PXY d   1      -2.283  -1.206  -1.089  0.00  0.00     0.003 A 
ENDROOT
TORSDOF 0
ENDMDL
