MODEL 1
REMARK minimizedAffinity 1.5407604
REMARK minimizedRMSD -1
REMARK  0 active torsions:
REMARK  status: ('A' for Active; 'I' for Inactive)
ROOT
ATOM      1  C4' PXY d   1       0.427  -1.500   1.876  0.00  0.00     0.077 C 
ATOM      2  C1' PXY d   1      -0.750   1.070  -3.167  0.00  0.00     0.077 C 
ATOM      3  C1  PXY d   1      -0.430   0.402  -1.844  0.00  0.00    -0.082 A 
ATOM      4  C2  PXY d   1      -1.004  -0.750  -1.537  0.00  0.00     0.003 A 
ATOM      5  C3  PXY d   1      -0.750  -1.351  -0.331  0.00  0.00     0.003 A 
ATOM      6  C4  PXY d   1       0.141  -0.795   0.547  0.00  0.00    -0.082 A 
ATOM      7  C5  PXY d   1       0.738   0.375   0.237  0.00  0.00     0.003 A 
ATOM      8  C6  PXY d   1       0.436   0.990  -0.975  0.00  0.00     0.003 A 
ENDROOT
TORSDOF 0
ENDMDL
