MODEL 1
REMARK minimizedAffinity -0.633517027
REMARK minimizedRMSD -1
REMARK  0 active torsions:
REMARK  status: ('A' for Active; 'I' for Inactive)
ROOT
ATOM      1  C4' PXY d   1       0.515  -2.072   1.496  0.00  0.00     0.077 C 
ATOM      2  C1' PXY d   1      -0.475   1.232  -3.143  0.00  0.00     0.077 C 
ATOM      3  C1  PXY d   1      -0.204   0.371  -1.925  0.00  0.00    -0.082 A 
ATOM      4  C2  PXY d   1      -0.832  -0.785  -1.788  0.00  0.00     0.003 A 
ATOM      5  C3  PXY d   1      -0.622  -1.561  -0.677  0.00  0.00     0.003 A 
ATOM      6  C4  PXY d   1       0.279  -1.174   0.278  0.00  0.00    -0.082 A 
ATOM      7  C5  PXY d   1       0.931  -0.001   0.141  0.00  0.00     0.003 A 
ATOM      8  C6  PXY d   1       0.674   0.792  -0.974  0.00  0.00     0.003 A 
ENDROOT
TORSDOF 0
ENDMDL
