MODEL 1
REMARK minimizedAffinity -1.30788887
REMARK minimizedRMSD -1
REMARK  0 active torsions:
REMARK  status: ('A' for Active; 'I' for Inactive)
ROOT
ATOM      1  C4' PXY d   1      -0.596   1.353  -2.577  0.00  0.00     0.077 C 
ATOM      2  C1' PXY d   1       0.096  -2.305   1.845  0.00  0.00     0.077 C 
ATOM      3  C1  PXY d   1      -0.092  -1.355   0.679  0.00  0.00    -0.082 A 
ATOM      4  C2  PXY d   1       0.751  -0.348   0.513  0.00  0.00     0.003 A 
ATOM      5  C3  PXY d   1       0.577   0.539  -0.518  0.00  0.00     0.003 A 
ATOM      6  C4  PXY d   1      -0.439   0.364  -1.419  0.00  0.00    -0.082 A 
ATOM      7  C5  PXY d   1      -1.297  -0.667  -1.263  0.00  0.00     0.003 A 
ATOM      8  C6  PXY d   1      -1.127  -1.533  -0.186  0.00  0.00     0.003 A 
ENDROOT
TORSDOF 0
ENDMDL
