MODEL 1
REMARK minimizedAffinity -4.16010141
REMARK minimizedRMSD -1
REMARK  0 active torsions:
REMARK  status: ('A' for Active; 'I' for Inactive)
ROOT
ATOM      1  C4' PXY d   1       1.096   0.351   0.218  0.00  0.00     0.077 C 
ATOM      2  C1' PXY d   1      -4.049  -2.259  -0.133  0.00  0.00     0.077 C 
ATOM      3  C1  PXY d   1      -2.700  -1.576  -0.028  0.00  0.00    -0.082 A 
ATOM      4  C2  PXY d   1      -2.322  -0.727  -0.969  0.00  0.00     0.003 A 
ATOM      5  C3  PXY d   1      -1.091  -0.125  -0.907  0.00  0.00     0.003 A 
ATOM      6  C4  PXY d   1      -0.262  -0.354   0.158  0.00  0.00    -0.082 A 
ATOM      7  C5  PXY d   1      -0.645  -1.211   1.128  0.00  0.00     0.003 A 
ATOM      8  C6  PXY d   1      -1.880  -1.844   1.025  0.00  0.00     0.003 A 
ENDROOT
TORSDOF 0
ENDMDL
