MODEL 1
REMARK minimizedAffinity -3.94966674
REMARK minimizedRMSD -1
REMARK  0 active torsions:
REMARK  status: ('A' for Active; 'I' for Inactive)
ROOT
ATOM      1  C4' PXY d   1      -3.282  -2.403  -0.309  0.00  0.00     0.077 C 
ATOM      2  C1' PXY d   1       1.504   0.705   0.611  0.00  0.00     0.077 C 
ATOM      3  C1  PXY d   1       0.254  -0.120   0.376  0.00  0.00    -0.082 A 
ATOM      4  C2  PXY d   1      -0.549   0.182  -0.630  0.00  0.00     0.003 A 
ATOM      5  C3  PXY d   1      -1.700  -0.533  -0.838  0.00  0.00     0.003 A 
ATOM      6  C4  PXY d   1      -2.004  -1.603  -0.040  0.00  0.00    -0.082 A 
ATOM      7  C5  PXY d   1      -1.184  -1.925   0.983  0.00  0.00     0.003 A 
ATOM      8  C6  PXY d   1      -0.042  -1.160   1.202  0.00  0.00     0.003 A 
ENDROOT
TORSDOF 0
ENDMDL
