MODEL 1
REMARK minimizedAffinity -5.57012558
REMARK minimizedRMSD -1
REMARK  0 active torsions:
REMARK  status: ('A' for Active; 'I' for Inactive)
ROOT
ATOM      1  C4' PXY d   1       1.259   1.486   0.363  0.00  0.00     0.077 C 
ATOM      2  C1' PXY d   1      -3.209  -2.162   0.750  0.00  0.00     0.077 C 
ATOM      3  C1  PXY d   1      -2.029  -1.215   0.652  0.00  0.00    -0.082 A 
ATOM      4  C2  PXY d   1      -2.220   0.086   0.803  0.00  0.00     0.003 A 
ATOM      5  C3  PXY d   1      -1.169   0.959   0.685  0.00  0.00     0.003 A 
ATOM      6  C4  PXY d   1       0.098   0.492   0.463  0.00  0.00    -0.082 A 
ATOM      7  C5  PXY d   1       0.303  -0.834   0.318  0.00  0.00     0.003 A 
ATOM      8  C6  PXY d   1      -0.783  -1.701   0.400  0.00  0.00     0.003 A 
ENDROOT
TORSDOF 0
ENDMDL
