MODEL 1
REMARK minimizedAffinity -4.56420803
REMARK minimizedRMSD -1
REMARK  0 active torsions:
REMARK  status: ('A' for Active; 'I' for Inactive)
ROOT
ATOM      1  C4' PXY d   1       1.491   0.643   0.054  0.00  0.00     0.077 C 
ATOM      2  C1' PXY d   1      -3.711  -1.872   0.216  0.00  0.00     0.077 C 
ATOM      3  C1  PXY d   1      -2.348  -1.211   0.161  0.00  0.00    -0.082 A 
ATOM      4  C2  PXY d   1      -1.466  -1.449   1.118  0.00  0.00     0.003 A 
ATOM      5  C3  PXY d   1      -0.241  -0.835   1.101  0.00  0.00     0.003 A 
ATOM      6  C4  PXY d   1       0.106  -0.010   0.064  0.00  0.00    -0.082 A 
ATOM      7  C5  PXY d   1      -0.784   0.229  -0.922  0.00  0.00     0.003 A 
ATOM      8  C6  PXY d   1      -2.038  -0.372  -0.864  0.00  0.00     0.003 A 
ENDROOT
TORSDOF 0
ENDMDL
