MODEL 1
REMARK minimizedAffinity -3.29888225
REMARK minimizedRMSD -1
REMARK  0 active torsions:
REMARK  status: ('A' for Active; 'I' for Inactive)
ROOT
ATOM      1  C4' PXY d   1       2.061   1.911   1.492  0.00  0.00     0.077 C 
ATOM      2  C1' PXY d   1      -1.778  -0.684  -1.964  0.00  0.00     0.077 C 
ATOM      3  C1  PXY d   1      -0.765  -0.015  -1.056  0.00  0.00    -0.082 A 
ATOM      4  C2  PXY d   1      -1.081   1.115  -0.445  0.00  0.00     0.003 A 
ATOM      5  C3  PXY d   1      -0.165   1.750   0.355  0.00  0.00     0.003 A 
ATOM      6  C4  PXY d   1       1.067   1.195   0.573  0.00  0.00    -0.082 A 
ATOM      7  C5  PXY d   1       1.393   0.036  -0.038  0.00  0.00     0.003 A 
ATOM      8  C6  PXY d   1       0.464  -0.571  -0.878  0.00  0.00     0.003 A 
ENDROOT
TORSDOF 0
ENDMDL
