MODEL 1
REMARK minimizedAffinity -5.96281767
REMARK minimizedRMSD -1
REMARK  0 active torsions:
REMARK  status: ('A' for Active; 'I' for Inactive)
ROOT
ATOM      1  C4' PXY d   1       0.187   0.272  -0.722  0.00  0.00     0.077 C 
ATOM      2  C1' PXY d   1      -4.866  -2.335   0.315  0.00  0.00     0.077 C 
ATOM      3  C1  PXY d   1      -3.545  -1.649   0.031  0.00  0.00    -0.082 A 
ATOM      4  C2  PXY d   1      -2.471  -1.982   0.728  0.00  0.00     0.003 A 
ATOM      5  C3  PXY d   1      -1.276  -1.349   0.506  0.00  0.00     0.003 A 
ATOM      6  C4  PXY d   1      -1.165  -0.401  -0.476  0.00  0.00    -0.082 A 
ATOM      7  C5  PXY d   1      -2.254  -0.063  -1.199  0.00  0.00     0.003 A 
ATOM      8  C6  PXY d   1      -3.468  -0.688  -0.930  0.00  0.00     0.003 A 
ENDROOT
TORSDOF 0
ENDMDL
