MODEL 1
REMARK minimizedAffinity -4.11511183
REMARK minimizedRMSD -1
REMARK  0 active torsions:
REMARK  status: ('A' for Active; 'I' for Inactive)
ROOT
ATOM      1  C4' PXY d   1      -4.718  -2.364   0.077  0.00  0.00     0.077 C 
ATOM      2  C1' PXY d   1       0.563  -0.067  -0.422  0.00  0.00     0.077 C 
ATOM      3  C1  PXY d   1      -0.825  -0.666  -0.303  0.00  0.00    -0.082 A 
ATOM      4  C2  PXY d   1      -1.394  -0.768   0.887  0.00  0.00     0.003 A 
ATOM      5  C3  PXY d   1      -2.635  -1.336   1.016  0.00  0.00     0.003 A 
ATOM      6  C4  PXY d   1      -3.323  -1.757  -0.091  0.00  0.00    -0.082 A 
ATOM      7  C5  PXY d   1      -2.753  -1.648  -1.310  0.00  0.00     0.003 A 
ATOM      8  C6  PXY d   1      -1.475  -1.105  -1.415  0.00  0.00     0.003 A 
ENDROOT
TORSDOF 0
ENDMDL
