MODEL 1
REMARK minimizedAffinity -3.18970156
REMARK minimizedRMSD -1
REMARK  0 active torsions:
REMARK  status: ('A' for Active; 'I' for Inactive)
ROOT
ATOM      1  C4' PXY d   1      -3.045  -1.214  -0.351  0.00  0.00     0.077 C 
ATOM      2  C1' PXY d   1       2.304   0.824   0.461  0.00  0.00     0.077 C 
ATOM      3  C1  PXY d   1       0.903   0.280   0.257  0.00  0.00    -0.082 A 
ATOM      4  C2  PXY d   1       0.280   0.493  -0.890  0.00  0.00     0.003 A 
ATOM      5  C3  PXY d   1      -0.999   0.036  -1.080  0.00  0.00     0.003 A 
ATOM      6  C4  PXY d   1      -1.627  -0.692  -0.104  0.00  0.00    -0.082 A 
ATOM      7  C5  PXY d   1      -0.993  -0.922   1.066  0.00  0.00     0.003 A 
ATOM      8  C6  PXY d   1       0.289  -0.414   1.254  0.00  0.00     0.003 A 
ENDROOT
TORSDOF 0
ENDMDL
