MODEL 1
REMARK minimizedAffinity -2.9495647
REMARK minimizedRMSD -1
REMARK  0 active torsions:
REMARK  status: ('A' for Active; 'I' for Inactive)
ROOT
ATOM      1  C4' PXY d   1       1.472   0.680   0.676  0.00  0.00     0.077 C 
ATOM      2  C1' PXY d   1      -3.512  -1.940  -0.633  0.00  0.00     0.077 C 
ATOM      3  C1  PXY d   1      -2.205  -1.259  -0.278  0.00  0.00    -0.082 A 
ATOM      4  C2  PXY d   1      -1.872  -0.128  -0.880  0.00  0.00     0.003 A 
ATOM      5  C3  PXY d   1      -0.679   0.484  -0.594  0.00  0.00     0.003 A 
ATOM      6  C4  PXY d   1       0.158  -0.038   0.356  0.00  0.00    -0.082 A 
ATOM      7  C5  PXY d   1      -0.180  -1.185   0.982  0.00  0.00     0.003 A 
ATOM      8  C6  PXY d   1      -1.376  -1.813   0.648  0.00  0.00     0.003 A 
ENDROOT
TORSDOF 0
ENDMDL
