MODEL 1
REMARK minimizedAffinity 26.2645664
REMARK minimizedRMSD -1
REMARK  0 active torsions:
REMARK  status: ('A' for Active; 'I' for Inactive)
ROOT
ATOM      1  C   UNL d   1      -0.672   2.950  -2.100  0.00  0.00     0.124 A 
ATOM      2  C1  UNL d   1       0.583   3.437  -1.761  0.00  0.00     0.062 A 
ATOM      3  C2  UNL d   1       1.252   4.307  -2.618  0.00  0.00     0.162 A 
ATOM      4  C3  UNL d   1       0.666   4.696  -3.823  0.00  0.00    -0.034 A 
ATOM      5  C4  UNL d   1      -0.596   4.202  -4.157  0.00  0.00     0.162 A 
ATOM      6  C5  UNL d   1      -1.260   3.333  -3.297  0.00  0.00     0.062 A 
ATOM      7  F   UNL d   1      -2.472   2.864  -3.627  0.00  0.00    -0.097 F 
ATOM      8  F1  UNL d   1      -1.188   4.556  -5.307  0.00  0.00    -0.096 F 
ATOM      9  I   UNL d   1       1.662   5.997  -5.107  0.00  0.00    -0.060 I 
ATOM     10  F2  UNL d   1       2.463   4.762  -2.265  0.00  0.00    -0.096 F 
ATOM     11  F3  UNL d   1       1.154   3.068  -0.606  0.00  0.00    -0.097 F 
ATOM     12  F4  UNL d   1      -1.312   2.113  -1.274  0.00  0.00    -0.092 F 
ENDROOT
TORSDOF 0
ENDMDL
