MODEL 1
REMARK minimizedAffinity 23.0577221
REMARK minimizedRMSD -1
REMARK  0 active torsions:
REMARK  status: ('A' for Active; 'I' for Inactive)
ROOT
ATOM      1  C   UNL d   1       3.842  -5.241  -2.249  0.00  0.00     0.124 A 
ATOM      2  C1  UNL d   1       4.676  -4.465  -3.041  0.00  0.00     0.062 A 
ATOM      3  C2  UNL d   1       4.142  -3.677  -4.057  0.00  0.00     0.162 A 
ATOM      4  C3  UNL d   1       2.766  -3.661  -4.286  0.00  0.00    -0.034 A 
ATOM      5  C4  UNL d   1       1.934  -4.444  -3.485  0.00  0.00     0.162 A 
ATOM      6  C5  UNL d   1       2.472  -5.230  -2.471  0.00  0.00     0.062 A 
ATOM      7  F   UNL d   1       1.665  -5.979  -1.706  0.00  0.00    -0.097 F 
ATOM      8  F1  UNL d   1       0.607  -4.452  -3.677  0.00  0.00    -0.096 F 
ATOM      9  I   UNL d   1       1.964  -2.484  -5.803  0.00  0.00    -0.060 I 
ATOM     10  F2  UNL d   1       4.972  -2.937  -4.808  0.00  0.00    -0.096 F 
ATOM     11  F3  UNL d   1       6.000  -4.474  -2.829  0.00  0.00    -0.097 F 
ATOM     12  F4  UNL d   1       4.358  -5.999  -1.272  0.00  0.00    -0.092 F 
ENDROOT
TORSDOF 0
ENDMDL
