MODEL 1
REMARK minimizedAffinity 23.7134571
REMARK minimizedRMSD -1
REMARK  0 active torsions:
REMARK  status: ('A' for Active; 'I' for Inactive)
ROOT
ATOM      1  C   UNL d   1      -0.239   2.257   0.926  0.00  0.00     0.124 A 
ATOM      2  C1  UNL d   1       0.247   3.177   0.007  0.00  0.00     0.062 A 
ATOM      3  C2  UNL d   1       1.028   4.247   0.434  0.00  0.00     0.162 A 
ATOM      4  C3  UNL d   1       1.331   4.402   1.787  0.00  0.00    -0.034 A 
ATOM      5  C4  UNL d   1       0.838   3.473   2.705  0.00  0.00     0.162 A 
ATOM      6  C5  UNL d   1       0.057   2.406   2.274  0.00  0.00     0.062 A 
ATOM      7  F   UNL d   1      -0.411   1.518   3.163  0.00  0.00    -0.097 F 
ATOM      8  F1  UNL d   1       1.110   3.592   4.013  0.00  0.00    -0.096 F 
ATOM      9  I   UNL d   1       2.500   6.000   2.428  0.00  0.00    -0.060 I 
ATOM     10  F2  UNL d   1       1.484   5.121  -0.476  0.00  0.00    -0.096 F 
ATOM     11  F3  UNL d   1      -0.039   3.036  -1.295  0.00  0.00    -0.097 F 
ATOM     12  F4  UNL d   1      -0.992   1.230   0.513  0.00  0.00    -0.092 F 
ENDROOT
TORSDOF 0
ENDMDL
