MODEL 1
REMARK minimizedAffinity 36.7191353
REMARK minimizedRMSD -1
REMARK  0 active torsions:
REMARK  status: ('A' for Active; 'I' for Inactive)
ROOT
ATOM      1  C   UNL d   1      -1.853   2.388   0.448  0.00  0.00     0.124 A 
ATOM      2  C1  UNL d   1      -3.045   2.103   1.099  0.00  0.00     0.062 A 
ATOM      3  C2  UNL d   1      -3.912   3.133   1.455  0.00  0.00     0.162 A 
ATOM      4  C3  UNL d   1      -3.589   4.458   1.160  0.00  0.00    -0.034 A 
ATOM      5  C4  UNL d   1      -2.388   4.737   0.506  0.00  0.00     0.162 A 
ATOM      6  C5  UNL d   1      -1.525   3.704   0.153  0.00  0.00     0.062 A 
ATOM      7  F   UNL d   1      -0.374   3.981  -0.476  0.00  0.00    -0.097 F 
ATOM      8  F1  UNL d   1      -2.047   5.999   0.208  0.00  0.00    -0.096 F 
ATOM      9  I   UNL d   1      -4.882   6.000   1.691  0.00  0.00    -0.060 I 
ATOM     10  F2  UNL d   1      -5.057   2.828   2.083  0.00  0.00    -0.096 F 
ATOM     11  F3  UNL d   1      -3.363   0.833   1.386  0.00  0.00    -0.097 F 
ATOM     12  F4  UNL d   1      -1.020   1.396   0.107  0.00  0.00    -0.092 F 
ENDROOT
TORSDOF 0
ENDMDL
