MODEL 1
REMARK minimizedAffinity 23.1673985
REMARK minimizedRMSD -1
REMARK  0 active torsions:
REMARK  status: ('A' for Active; 'I' for Inactive)
ROOT
ATOM      1  C   UNL d   1       1.588  -2.846  -1.503  0.00  0.00     0.124 A 
ATOM      2  C1  UNL d   1       1.274  -3.636  -2.600  0.00  0.00     0.062 A 
ATOM      3  C2  UNL d   1       1.327  -3.103  -3.885  0.00  0.00     0.162 A 
ATOM      4  C3  UNL d   1       1.697  -1.773  -4.080  0.00  0.00    -0.034 A 
ATOM      5  C4  UNL d   1       2.011  -0.984  -2.972  0.00  0.00     0.162 A 
ATOM      6  C5  UNL d   1       1.956  -1.521  -1.690  0.00  0.00     0.062 A 
ATOM      7  F   UNL d   1       2.260  -0.756  -0.632  0.00  0.00    -0.097 F 
ATOM      8  F1  UNL d   1       2.370   0.299  -3.124  0.00  0.00    -0.096 F 
ATOM      9  I   UNL d   1       1.777  -0.973  -6.000  0.00  0.00    -0.060 I 
ATOM     10  F2  UNL d   1       1.017  -3.890  -4.926  0.00  0.00    -0.096 F 
ATOM     11  F3  UNL d   1       0.917  -4.916  -2.422  0.00  0.00    -0.097 F 
ATOM     12  F4  UNL d   1       1.535  -3.361  -0.268  0.00  0.00    -0.092 F 
ENDROOT
TORSDOF 0
ENDMDL
