MODEL 1
REMARK minimizedAffinity 30.8886127
REMARK minimizedRMSD -1
REMARK  0 active torsions:
REMARK  status: ('A' for Active; 'I' for Inactive)
ROOT
ATOM      1  C   UNL d   1      -0.848   2.536  -1.717  0.00  0.00     0.124 A 
ATOM      2  C1  UNL d   1       0.337   3.069  -1.228  0.00  0.00     0.062 A 
ATOM      3  C2  UNL d   1       1.009   4.055  -1.944  0.00  0.00     0.162 A 
ATOM      4  C3  UNL d   1       0.497   4.517  -3.157  0.00  0.00    -0.034 A 
ATOM      5  C4  UNL d   1      -0.695   3.976  -3.642  0.00  0.00     0.162 A 
ATOM      6  C5  UNL d   1      -1.363   2.990  -2.923  0.00  0.00     0.062 A 
ATOM      7  F   UNL d   1      -2.508   2.477  -3.397  0.00  0.00    -0.097 F 
ATOM      8  F1  UNL d   1      -1.215   4.397  -4.805  0.00  0.00    -0.096 F 
ATOM      9  I   UNL d   1       1.498   5.992  -4.230  0.00  0.00    -0.060 I 
ATOM     10  F2  UNL d   1       2.152   4.552  -1.448  0.00  0.00    -0.096 F 
ATOM     11  F3  UNL d   1       0.836   2.631  -0.064  0.00  0.00    -0.097 F 
ATOM     12  F4  UNL d   1      -1.493   1.586  -1.027  0.00  0.00    -0.092 F 
ENDROOT
TORSDOF 0
ENDMDL
