MODEL 1
REMARK minimizedAffinity 21.7722187
REMARK minimizedRMSD -1
REMARK  0 active torsions:
REMARK  status: ('A' for Active; 'I' for Inactive)
ROOT
ATOM      1  C   UNL d   1      -1.657   1.644  -1.204  0.00  0.00     0.124 A 
ATOM      2  C1  UNL d   1      -1.940   2.048  -2.502  0.00  0.00     0.062 A 
ATOM      3  C2  UNL d   1      -1.154   3.016  -3.120  0.00  0.00     0.162 A 
ATOM      4  C3  UNL d   1      -0.077   3.587  -2.442  0.00  0.00    -0.034 A 
ATOM      5  C4  UNL d   1       0.201   3.176  -1.137  0.00  0.00     0.162 A 
ATOM      6  C5  UNL d   1      -0.588   2.208  -0.523  0.00  0.00     0.062 A 
ATOM      7  F   UNL d   1      -0.313   1.820   0.731  0.00  0.00    -0.097 F 
ATOM      8  F1  UNL d   1       1.229   3.704  -0.456  0.00  0.00    -0.096 F 
ATOM      9  I   UNL d   1       1.101   5.034  -3.364  0.00  0.00    -0.060 I 
ATOM     10  F2  UNL d   1      -1.450   3.387  -4.375  0.00  0.00    -0.096 F 
ATOM     11  F3  UNL d   1      -2.973   1.505  -3.161  0.00  0.00    -0.097 F 
ATOM     12  F4  UNL d   1      -2.415   0.713  -0.611  0.00  0.00    -0.092 F 
ENDROOT
TORSDOF 0
ENDMDL
