MODEL 1
REMARK minimizedAffinity 28.6335239
REMARK minimizedRMSD -1
REMARK  0 active torsions:
REMARK  status: ('A' for Active; 'I' for Inactive)
ROOT
ATOM      1  C   UNL d   1       1.478  -3.420  -0.936  0.00  0.00     0.124 A 
ATOM      2  C1  UNL d   1       2.143  -4.537  -1.424  0.00  0.00     0.062 A 
ATOM      3  C2  UNL d   1       3.369  -4.912  -0.884  0.00  0.00     0.162 A 
ATOM      4  C3  UNL d   1       3.939  -4.171   0.151  0.00  0.00    -0.034 A 
ATOM      5  C4  UNL d   1       3.265  -3.049   0.636  0.00  0.00     0.162 A 
ATOM      6  C5  UNL d   1       2.039  -2.678   0.093  0.00  0.00     0.062 A 
ATOM      7  F   UNL d   1       1.399  -1.599   0.566  0.00  0.00    -0.097 F 
ATOM      8  F1  UNL d   1       3.785  -2.314   1.630  0.00  0.00    -0.096 F 
ATOM      9  I   UNL d   1       5.774  -4.729   0.960  0.00  0.00    -0.060 I 
ATOM     10  F2  UNL d   1       3.989  -5.995  -1.375  0.00  0.00    -0.096 F 
ATOM     11  F3  UNL d   1       1.602  -5.255  -2.419  0.00  0.00    -0.097 F 
ATOM     12  F4  UNL d   1       0.298  -3.060  -1.458  0.00  0.00    -0.092 F 
ENDROOT
TORSDOF 0
ENDMDL
