MODEL 1
REMARK minimizedAffinity 23.2741108
REMARK minimizedRMSD -1
REMARK  0 active torsions:
REMARK  status: ('A' for Active; 'I' for Inactive)
ROOT
ATOM      1  C   UNL d   1       1.497  -3.642  -0.832  0.00  0.00     0.124 A 
ATOM      2  C1  UNL d   1       1.403  -4.670  -1.760  0.00  0.00     0.062 A 
ATOM      3  C2  UNL d   1       1.424  -4.386  -3.123  0.00  0.00     0.162 A 
ATOM      4  C3  UNL d   1       1.539  -3.069  -3.566  0.00  0.00    -0.034 A 
ATOM      5  C4  UNL d   1       1.632  -2.040  -2.627  0.00  0.00     0.162 A 
ATOM      6  C5  UNL d   1       1.611  -2.329  -1.266  0.00  0.00     0.062 A 
ATOM      7  F   UNL d   1       1.701  -1.334  -0.371  0.00  0.00    -0.097 F 
ATOM      8  F1  UNL d   1       1.744  -0.762  -3.018  0.00  0.00    -0.096 F 
ATOM      9  I   UNL d   1       1.570  -2.641  -5.603  0.00  0.00    -0.060 I 
ATOM     10  F2  UNL d   1       1.332  -5.399  -3.997  0.00  0.00    -0.096 F 
ATOM     11  F3  UNL d   1       1.292  -5.939  -1.344  0.00  0.00    -0.097 F 
ATOM     12  F4  UNL d   1       1.476  -3.917   0.478  0.00  0.00    -0.092 F 
ENDROOT
TORSDOF 0
ENDMDL
