MODEL 1
REMARK minimizedAffinity 23.3629456
REMARK minimizedRMSD -1
REMARK  0 active torsions:
REMARK  status: ('A' for Active; 'I' for Inactive)
ROOT
ATOM      1  C   UNL d   1       1.077   3.160   1.695  0.00  0.00     0.124 A 
ATOM      2  C1  UNL d   1       0.506   2.494   2.770  0.00  0.00     0.062 A 
ATOM      3  C2  UNL d   1      -0.745   1.897   2.640  0.00  0.00     0.162 A 
ATOM      4  C3  UNL d   1      -1.434   1.964   1.429  0.00  0.00    -0.034 A 
ATOM      5  C4  UNL d   1      -0.854   2.638   0.352  0.00  0.00     0.162 A 
ATOM      6  C5  UNL d   1       0.397   3.232   0.487  0.00  0.00     0.062 A 
ATOM      7  F   UNL d   1       0.946   3.876  -0.553  0.00  0.00    -0.097 F 
ATOM      8  F1  UNL d   1      -1.489   2.721  -0.826  0.00  0.00    -0.096 F 
ATOM      9  I   UNL d   1      -3.305   1.075   1.231  0.00  0.00    -0.060 I 
ATOM     10  F2  UNL d   1      -1.272   1.260   3.696  0.00  0.00    -0.096 F 
ATOM     11  F3  UNL d   1       1.161   2.424   3.938  0.00  0.00    -0.097 F 
ATOM     12  F4  UNL d   1       2.280   3.734   1.823  0.00  0.00    -0.092 F 
ENDROOT
TORSDOF 0
ENDMDL
