MODEL 1
REMARK minimizedAffinity 39.563427
REMARK minimizedRMSD -1
REMARK  0 active torsions:
REMARK  status: ('A' for Active; 'I' for Inactive)
ROOT
ATOM      1  C   UNL d   1       1.411  -3.309  -1.151  0.00  0.00     0.124 A 
ATOM      2  C1  UNL d   1       2.072  -4.461  -1.555  0.00  0.00     0.062 A 
ATOM      3  C2  UNL d   1       3.232  -4.867  -0.904  0.00  0.00     0.162 A 
ATOM      4  C3  UNL d   1       3.740  -4.122   0.160  0.00  0.00    -0.034 A 
ATOM      5  C4  UNL d   1       3.071  -2.964   0.560  0.00  0.00     0.162 A 
ATOM      6  C5  UNL d   1       1.911  -2.561  -0.094  0.00  0.00     0.062 A 
ATOM      7  F   UNL d   1       1.275  -1.448   0.297  0.00  0.00    -0.097 F 
ATOM      8  F1  UNL d   1       3.531  -2.223   1.580  0.00  0.00    -0.096 F 
ATOM      9  I   UNL d   1       5.475  -4.726   1.138  0.00  0.00    -0.060 I 
ATOM     10  F2  UNL d   1       3.850  -5.985  -1.315  0.00  0.00    -0.096 F 
ATOM     11  F3  UNL d   1       1.591  -5.184  -2.577  0.00  0.00    -0.097 F 
ATOM     12  F4  UNL d   1       0.295  -2.919  -1.781  0.00  0.00    -0.092 F 
ENDROOT
TORSDOF 0
ENDMDL
