MODEL 1
REMARK minimizedAffinity 23.7968597
REMARK minimizedRMSD -1
REMARK  0 active torsions:
REMARK  status: ('A' for Active; 'I' for Inactive)
ROOT
ATOM      1  C   UNL d   1       0.763   2.679  -1.053  0.00  0.00     0.124 A 
ATOM      2  C1  UNL d   1       0.029   2.109  -0.022  0.00  0.00     0.062 A 
ATOM      3  C2  UNL d   1      -0.952   2.849   0.631  0.00  0.00     0.162 A 
ATOM      4  C3  UNL d   1      -1.207   4.168   0.255  0.00  0.00    -0.034 A 
ATOM      5  C4  UNL d   1      -0.464   4.735  -0.783  0.00  0.00     0.162 A 
ATOM      6  C5  UNL d   1       0.516   3.991  -1.432  0.00  0.00     0.062 A 
ATOM      7  F   UNL d   1       1.223   4.543  -2.428  0.00  0.00    -0.097 F 
ATOM      8  F1  UNL d   1      -0.683   6.000  -1.170  0.00  0.00    -0.096 F 
ATOM      9  I   UNL d   1      -2.673   5.278   1.229  0.00  0.00    -0.060 I 
ATOM     10  F2  UNL d   1      -1.646   2.273   1.624  0.00  0.00    -0.096 F 
ATOM     11  F3  UNL d   1       0.267   0.842   0.348  0.00  0.00    -0.097 F 
ATOM     12  F4  UNL d   1       1.707   1.965  -1.679  0.00  0.00    -0.092 F 
ENDROOT
TORSDOF 0
ENDMDL
