MODEL 1
REMARK minimizedAffinity 24.1366482
REMARK minimizedRMSD -1
REMARK  0 active torsions:
REMARK  status: ('A' for Active; 'I' for Inactive)
ROOT
ATOM      1  C   UNL d   1       1.479  -1.945  -0.121  0.00  0.00     0.124 A 
ATOM      2  C1  UNL d   1       2.267  -2.400   0.927  0.00  0.00     0.062 A 
ATOM      3  C2  UNL d   1       3.026  -3.557   0.781  0.00  0.00     0.162 A 
ATOM      4  C3  UNL d   1       3.001  -4.268  -0.419  0.00  0.00    -0.034 A 
ATOM      5  C4  UNL d   1       2.205  -3.805  -1.468  0.00  0.00     0.162 A 
ATOM      6  C5  UNL d   1       1.448  -2.648  -1.317  0.00  0.00     0.062 A 
ATOM      7  F   UNL d   1       0.687  -2.210  -2.330  0.00  0.00    -0.097 F 
ATOM      8  F1  UNL d   1       2.157  -4.465  -2.635  0.00  0.00    -0.096 F 
ATOM      9  I   UNL d   1       4.135  -6.000  -0.642  0.00  0.00    -0.060 I 
ATOM     10  F2  UNL d   1       3.779  -3.974   1.810  0.00  0.00    -0.096 F 
ATOM     11  F3  UNL d   1       2.298  -1.723   2.084  0.00  0.00    -0.097 F 
ATOM     12  F4  UNL d   1       0.749  -0.832   0.023  0.00  0.00    -0.092 F 
ENDROOT
TORSDOF 0
ENDMDL
