MODEL 1
REMARK minimizedAffinity 17.2619476
REMARK minimizedRMSD -1
REMARK  0 active torsions:
REMARK  status: ('A' for Active; 'I' for Inactive)
ROOT
ATOM      1  C   UNL d   1      -5.288  -3.807   1.994  0.00  0.00     0.124 A 
ATOM      2  C1  UNL d   1      -5.284  -2.761   1.082  0.00  0.00     0.062 A 
ATOM      3  C2  UNL d   1      -4.546  -1.609   1.340  0.00  0.00     0.162 A 
ATOM      4  C3  UNL d   1      -3.804  -1.498   2.516  0.00  0.00    -0.034 A 
ATOM      5  C4  UNL d   1      -3.814  -2.554   3.430  0.00  0.00     0.162 A 
ATOM      6  C5  UNL d   1      -4.553  -3.703   3.167  0.00  0.00     0.062 A 
ATOM      7  F   UNL d   1      -4.556  -4.712   4.049  0.00  0.00    -0.097 F 
ATOM      8  F1  UNL d   1      -3.112  -2.480   4.570  0.00  0.00    -0.096 F 
ATOM      9  I   UNL d   1      -2.699   0.222   2.907  0.00  0.00    -0.060 I 
ATOM     10  F2  UNL d   1      -4.560  -0.614   0.441  0.00  0.00    -0.096 F 
ATOM     11  F3  UNL d   1      -5.993  -2.859  -0.051  0.00  0.00    -0.097 F 
ATOM     12  F4  UNL d   1      -5.999  -4.913   1.743  0.00  0.00    -0.092 F 
ENDROOT
TORSDOF 0
ENDMDL
