MODEL 1
REMARK minimizedAffinity 30.380415
REMARK minimizedRMSD -1
REMARK  0 active torsions:
REMARK  status: ('A' for Active; 'I' for Inactive)
ROOT
ATOM      1  C   UNL d   1       0.658  -2.559  -1.052  0.00  0.00     0.124 A 
ATOM      2  C1  UNL d   1       1.012  -3.718  -1.728  0.00  0.00     0.062 A 
ATOM      3  C2  UNL d   1       2.083  -4.488  -1.283  0.00  0.00     0.162 A 
ATOM      4  C3  UNL d   1       2.808  -4.101  -0.156  0.00  0.00    -0.034 A 
ATOM      5  C4  UNL d   1       2.446  -2.933   0.518  0.00  0.00     0.162 A 
ATOM      6  C5  UNL d   1       1.375  -2.167   0.070  0.00  0.00     0.062 A 
ATOM      7  F   UNL d   1       1.034  -1.047   0.723  0.00  0.00    -0.097 F 
ATOM      8  F1  UNL d   1       3.121  -2.531   1.605  0.00  0.00    -0.096 F 
ATOM      9  I   UNL d   1       4.410  -5.249   0.512  0.00  0.00    -0.060 I 
ATOM     10  F2  UNL d   1       2.403  -5.604  -1.955  0.00  0.00    -0.096 F 
ATOM     11  F3  UNL d   1       0.321  -4.099  -2.812  0.00  0.00    -0.097 F 
ATOM     12  F4  UNL d   1      -0.373  -1.820  -1.483  0.00  0.00    -0.092 F 
ENDROOT
TORSDOF 0
ENDMDL
