MODEL 1
REMARK minimizedAffinity 16.398325
REMARK minimizedRMSD -1
REMARK  0 active torsions:
REMARK  status: ('A' for Active; 'I' for Inactive)
ROOT
ATOM      1  C   UNL d   1       0.538   3.320  -0.241  0.00  0.00     0.124 A 
ATOM      2  C1  UNL d   1       0.324   3.979  -1.444  0.00  0.00     0.062 A 
ATOM      3  C2  UNL d   1      -0.768   3.646  -2.240  0.00  0.00     0.162 A 
ATOM      4  C3  UNL d   1      -1.656   2.649  -1.835  0.00  0.00    -0.034 A 
ATOM      5  C4  UNL d   1      -1.433   1.990  -0.625  0.00  0.00     0.162 A 
ATOM      6  C5  UNL d   1      -0.340   2.326   0.167  0.00  0.00     0.062 A 
ATOM      7  F   UNL d   1      -0.135   1.689   1.329  0.00  0.00    -0.097 F 
ATOM      8  F1  UNL d   1      -2.267   1.026  -0.206  0.00  0.00    -0.096 F 
ATOM      9  I   UNL d   1      -3.290   2.147  -3.023  0.00  0.00    -0.060 I 
ATOM     10  F2  UNL d   1      -0.950   4.299  -3.397  0.00  0.00    -0.096 F 
ATOM     11  F3  UNL d   1       1.172   4.939  -1.841  0.00  0.00    -0.097 F 
ATOM     12  F4  UNL d   1       1.590   3.642   0.523  0.00  0.00    -0.092 F 
ENDROOT
TORSDOF 0
ENDMDL
