MODEL 1
REMARK minimizedAffinity -2.81697035
REMARK minimizedRMSD -1
REMARK  0 active torsions:
REMARK  status: ('A' for Active; 'I' for Inactive)
ROOT
ATOM      1  C1  BNZ d   1       3.585  -3.339  -4.895  0.00  0.00     0.000 A 
ATOM      2  C2  BNZ d   1       3.658  -4.513  -4.192  0.00  0.00     0.000 A 
ATOM      3  C3  BNZ d   1       4.708  -5.370  -4.370  0.00  0.00     0.000 A 
ATOM      4  C4  BNZ d   1       5.660  -5.073  -5.277  0.00  0.00     0.000 A 
ATOM      5  C5  BNZ d   1       5.596  -3.898  -6.000  0.00  0.00     0.000 A 
ATOM      6  C6  BNZ d   1       4.558  -3.019  -5.790  0.00  0.00     0.000 A 
ENDROOT
TORSDOF 0
ENDMDL
