MODEL 1
REMARK minimizedAffinity 3.83531427
REMARK minimizedRMSD -1
REMARK  0 active torsions:
REMARK  status: ('A' for Active; 'I' for Inactive)
ROOT
ATOM      1  C1  BNZ d   1       3.297   4.579  -2.684  0.00  0.00     0.000 A 
ATOM      2  C2  BNZ d   1       2.931   3.390  -3.256  0.00  0.00     0.000 A 
ATOM      3  C3  BNZ d   1       1.715   2.827  -2.985  0.00  0.00     0.000 A 
ATOM      4  C4  BNZ d   1       0.885   3.433  -2.112  0.00  0.00     0.000 A 
ATOM      5  C5  BNZ d   1       1.243   4.627  -1.519  0.00  0.00     0.000 A 
ATOM      6  C6  BNZ d   1       2.451   5.210  -1.825  0.00  0.00     0.000 A 
ENDROOT
TORSDOF 0
ENDMDL
