MODEL 1
REMARK minimizedAffinity 5.58533049
REMARK minimizedRMSD -1
REMARK  0 active torsions:
REMARK  status: ('A' for Active; 'I' for Inactive)
ROOT
ATOM      1  C1  BNZ d   1      -3.152   2.538  -2.647  0.00  0.00     0.000 A 
ATOM      2  C2  BNZ d   1      -1.852   2.133  -2.511  0.00  0.00     0.000 A 
ATOM      3  C3  BNZ d   1      -1.492   0.839  -2.764  0.00  0.00     0.000 A 
ATOM      4  C4  BNZ d   1      -2.439  -0.057  -3.112  0.00  0.00     0.000 A 
ATOM      5  C5  BNZ d   1      -3.756   0.335  -3.244  0.00  0.00     0.000 A 
ATOM      6  C6  BNZ d   1      -4.108   1.647  -3.027  0.00  0.00     0.000 A 
ENDROOT
TORSDOF 0
ENDMDL
