MODEL 1
REMARK minimizedAffinity -1.12224019
REMARK minimizedRMSD -1
REMARK  0 active torsions:
REMARK  status: ('A' for Active; 'I' for Inactive)
ROOT
ATOM      1  C1  BNZ d   1      -4.519   4.113  -3.737  0.00  0.00     0.000 A 
ATOM      2  C2  BNZ d   1      -3.731   2.993  -3.750  0.00  0.00     0.000 A 
ATOM      3  C3  BNZ d   1      -4.083   1.881  -3.037  0.00  0.00     0.000 A 
ATOM      4  C4  BNZ d   1      -5.200   1.904  -2.282  0.00  0.00     0.000 A 
ATOM      5  C5  BNZ d   1      -6.000   3.029  -2.251  0.00  0.00     0.000 A 
ATOM      6  C6  BNZ d   1      -5.663   4.132  -3.000  0.00  0.00     0.000 A 
ENDROOT
TORSDOF 0
ENDMDL
