MODEL 1
REMARK minimizedAffinity -2.85294199
REMARK minimizedRMSD -1
REMARK  0 active torsions:
REMARK  status: ('A' for Active; 'I' for Inactive)
ROOT
ATOM      1  C1  BNZ d   1       3.566  -3.286  -5.570  0.00  0.00     0.000 A 
ATOM      2  C2  BNZ d   1       4.728  -3.873  -5.997  0.00  0.00     0.000 A 
ATOM      3  C3  BNZ d   1       5.943  -3.342  -5.666  0.00  0.00     0.000 A 
ATOM      4  C4  BNZ d   1       5.995  -2.204  -4.943  0.00  0.00     0.000 A 
ATOM      5  C5  BNZ d   1       4.832  -1.596  -4.514  0.00  0.00     0.000 A 
ATOM      6  C6  BNZ d   1       3.612  -2.155  -4.816  0.00  0.00     0.000 A 
ENDROOT
TORSDOF 0
ENDMDL
