MODEL 1
REMARK minimizedAffinity 1.92382526
REMARK minimizedRMSD -1
REMARK  0 active torsions:
REMARK  status: ('A' for Active; 'I' for Inactive)
ROOT
ATOM      1  C1  BNZ d   1      -3.052   1.067  -3.877  0.00  0.00     0.000 A 
ATOM      2  C2  BNZ d   1      -3.821   2.188  -4.044  0.00  0.00     0.000 A 
ATOM      3  C3  BNZ d   1      -4.058   3.036  -2.998  0.00  0.00     0.000 A 
ATOM      4  C4  BNZ d   1      -3.560   2.741  -1.780  0.00  0.00     0.000 A 
ATOM      5  C5  BNZ d   1      -2.791   1.610  -1.594  0.00  0.00     0.000 A 
ATOM      6  C6  BNZ d   1      -2.522   0.779  -2.658  0.00  0.00     0.000 A 
ENDROOT
TORSDOF 0
ENDMDL
