MODEL 1
REMARK minimizedAffinity 3.19337273
REMARK minimizedRMSD -1
REMARK  0 active torsions:
REMARK  status: ('A' for Active; 'I' for Inactive)
ROOT
ATOM      1  C1  BNZ d   1       5.162  -4.678  -5.003  0.00  0.00     0.000 A 
ATOM      2  C2  BNZ d   1       5.874  -4.042  -5.985  0.00  0.00     0.000 A 
ATOM      3  C3  BNZ d   1       6.000  -2.681  -5.988  0.00  0.00     0.000 A 
ATOM      4  C4  BNZ d   1       5.381  -1.956  -5.034  0.00  0.00     0.000 A 
ATOM      5  C5  BNZ d   1       4.652  -2.581  -4.043  0.00  0.00     0.000 A 
ATOM      6  C6  BNZ d   1       4.560  -3.954  -4.020  0.00  0.00     0.000 A 
ENDROOT
TORSDOF 0
ENDMDL
