MODEL 1
REMARK minimizedAffinity 9.39327049
REMARK minimizedRMSD -1
REMARK  0 active torsions:
REMARK  status: ('A' for Active; 'I' for Inactive)
ROOT
ATOM      1  C1  BNZ d   1      -3.093   2.613  -4.110  0.00  0.00     0.000 A 
ATOM      2  C2  BNZ d   1      -2.315   1.487  -4.058  0.00  0.00     0.000 A 
ATOM      3  C3  BNZ d   1      -2.423   0.609  -3.017  0.00  0.00     0.000 A 
ATOM      4  C4  BNZ d   1      -3.280   0.877  -2.010  0.00  0.00     0.000 A 
ATOM      5  C5  BNZ d   1      -4.064   2.012  -2.043  0.00  0.00     0.000 A 
ATOM      6  C6  BNZ d   1      -3.980   2.874  -3.113  0.00  0.00     0.000 A 
ENDROOT
TORSDOF 0
ENDMDL
