MODEL 1
REMARK minimizedAffinity 2.42932582
REMARK minimizedRMSD -1
REMARK  0 active torsions:
REMARK  status: ('A' for Active; 'I' for Inactive)
ROOT
ATOM      1  C1  BNZ d   1       4.161  -3.655  -5.028  0.00  0.00     0.000 A 
ATOM      2  C2  BNZ d   1       3.728  -4.844  -4.506  0.00  0.00     0.000 A 
ATOM      3  C3  BNZ d   1       4.436  -5.996  -4.705  0.00  0.00     0.000 A 
ATOM      4  C4  BNZ d   1       5.554  -5.965  -5.458  0.00  0.00     0.000 A 
ATOM      5  C5  BNZ d   1       5.999  -4.775  -6.000  0.00  0.00     0.000 A 
ATOM      6  C6  BNZ d   1       5.304  -3.611  -5.765  0.00  0.00     0.000 A 
ENDROOT
TORSDOF 0
ENDMDL
