MODEL 1
REMARK minimizedAffinity 6.89480591
REMARK minimizedRMSD -1
REMARK  0 active torsions:
REMARK  status: ('A' for Active; 'I' for Inactive)
ROOT
ATOM      1  C1  BNZ d   1      -2.694   3.038  -4.160  0.00  0.00     0.000 A 
ATOM      2  C2  BNZ d   1      -1.938   1.909  -3.990  0.00  0.00     0.000 A 
ATOM      3  C3  BNZ d   1      -1.991   1.201  -2.822  0.00  0.00     0.000 A 
ATOM      4  C4  BNZ d   1      -2.768   1.643  -1.813  0.00  0.00     0.000 A 
ATOM      5  C5  BNZ d   1      -3.529   2.785  -1.966  0.00  0.00     0.000 A 
ATOM      6  C6  BNZ d   1      -3.503   3.474  -3.157  0.00  0.00     0.000 A 
ENDROOT
TORSDOF 0
ENDMDL
