MODEL 1
REMARK minimizedAffinity 4.36720467
REMARK minimizedRMSD -1
REMARK  1 active torsions:
REMARK  status: ('A' for Active; 'I' for Inactive)
REMARK    1  A    between atoms: N_2  and  C1_3 
ROOT
ATOM      1  C1  UNL d   1      -0.425   3.212   0.540  0.00  0.00     0.143 A 
ATOM      2  C2  UNL d   1       0.422   3.066   1.644  0.00  0.00    -0.057 A 
ATOM      3  C3  UNL d   1       0.175   2.099   2.626  0.00  0.00     0.033 A 
ATOM      4  C4  UNL d   1      -0.944   1.277   2.536  0.00  0.00    -0.042 A 
ATOM      5  C5  UNL d   1      -1.813   1.422   1.460  0.00  0.00     0.033 A 
ATOM      6  C6  UNL d   1      -1.558   2.385   0.480  0.00  0.00    -0.057 A 
ENDROOT
BRANCH   1   7
ATOM      7  N   UNL d   1      -0.288   4.220  -0.417  0.00  0.00    -0.732 N 
ATOM      8  C   UNL d   1       0.897   5.050  -0.450  0.00  0.00     0.284 C 
ATOM      9  H3  UNL d   1      -0.619   3.931  -1.335  0.00  0.00     0.395 HD
ENDBRANCH   1   7
TORSDOF 1
ENDMDL
