MODEL 1
REMARK minimizedAffinity -0.435359508
REMARK minimizedRMSD -1
REMARK  1 active torsions:
REMARK  status: ('A' for Active; 'I' for Inactive)
REMARK    1  A    between atoms: N_2  and  C1_3 
ROOT
ATOM      1  C1  UNL d   1      -0.965   2.464   0.277  0.00  0.00     0.143 A 
ATOM      2  C2  UNL d   1      -0.946   3.861   0.210  0.00  0.00    -0.057 A 
ATOM      3  C3  UNL d   1      -0.233   4.530  -0.792  0.00  0.00     0.033 A 
ATOM      4  C4  UNL d   1       0.500   3.811  -1.730  0.00  0.00    -0.042 A 
ATOM      5  C5  UNL d   1       0.516   2.422  -1.668  0.00  0.00     0.033 A 
ATOM      6  C6  UNL d   1      -0.204   1.760  -0.669  0.00  0.00    -0.057 A 
ENDROOT
BRANCH   1   7
ATOM      7  N   UNL d   1      -1.575   1.743   1.307  0.00  0.00    -0.732 N 
ATOM      8  C   UNL d   1      -0.780   0.956   2.226  0.00  0.00     0.284 C 
ATOM      9  H3  UNL d   1      -2.331   2.261   1.749  0.00  0.00     0.395 HD
ENDBRANCH   1   7
TORSDOF 1
ENDMDL
