MODEL 1
REMARK minimizedAffinity 2.24903536
REMARK minimizedRMSD -1
REMARK  1 active torsions:
REMARK  status: ('A' for Active; 'I' for Inactive)
REMARK    1  A    between atoms: N_2  and  C1_3 
ROOT
ATOM      1  C1  UNL d   1       0.173   0.647  -0.216  0.00  0.00     0.143 A 
ATOM      2  C2  UNL d   1      -0.886   1.533  -0.444  0.00  0.00    -0.057 A 
ATOM      3  C3  UNL d   1      -1.622   2.072   0.618  0.00  0.00     0.033 A 
ATOM      4  C4  UNL d   1      -1.330   1.711   1.929  0.00  0.00    -0.042 A 
ATOM      5  C5  UNL d   1      -0.297   0.814   2.177  0.00  0.00     0.033 A 
ATOM      6  C6  UNL d   1       0.439   0.284   1.113  0.00  0.00    -0.057 A 
ENDROOT
BRANCH   1   7
ATOM      7  N   UNL d   1       0.879   0.001  -1.234  0.00  0.00    -0.732 N 
ATOM      8  C   UNL d   1       0.181  -0.585  -2.358  0.00  0.00     0.284 C 
ATOM      9  H3  UNL d   1       1.734   0.492  -1.486  0.00  0.00     0.395 HD
ENDBRANCH   1   7
TORSDOF 1
ENDMDL
