MODEL 1
REMARK minimizedAffinity 0.775609672
REMARK minimizedRMSD -1
REMARK  1 active torsions:
REMARK  status: ('A' for Active; 'I' for Inactive)
REMARK    1  A    between atoms: N_2  and  C1_3 
ROOT
ATOM      1  C1  UNL d   1      -2.261   1.583   1.971  0.00  0.00     0.143 A 
ATOM      2  C2  UNL d   1      -3.128   2.627   1.631  0.00  0.00    -0.057 A 
ATOM      3  C3  UNL d   1      -2.755   3.608   0.704  0.00  0.00     0.033 A 
ATOM      4  C4  UNL d   1      -1.492   3.579   0.122  0.00  0.00    -0.042 A 
ATOM      5  C5  UNL d   1      -0.604   2.565   0.465  0.00  0.00     0.033 A 
ATOM      6  C6  UNL d   1      -0.986   1.584   1.386  0.00  0.00    -0.057 A 
ENDROOT
BRANCH   1   7
ATOM      7  N   UNL d   1      -2.537   0.634   2.959  0.00  0.00    -0.732 N 
ATOM      8  C   UNL d   1      -1.859  -0.645   2.961  0.00  0.00     0.284 C 
ATOM      9  H3  UNL d   1      -2.640   1.051   3.881  0.00  0.00     0.395 HD
ENDBRANCH   1   7
TORSDOF 1
ENDMDL
