MODEL 1
REMARK minimizedAffinity 1.3530494
REMARK minimizedRMSD -1
REMARK  1 active torsions:
REMARK  status: ('A' for Active; 'I' for Inactive)
REMARK    1  A    between atoms: N_2  and  C1_3 
ROOT
ATOM      1  C1  UNL d   1      -0.715   1.754   0.952  0.00  0.00     0.143 A 
ATOM      2  C2  UNL d   1      -0.089   0.835   0.102  0.00  0.00    -0.057 A 
ATOM      3  C3  UNL d   1       0.534   1.249  -1.081  0.00  0.00     0.033 A 
ATOM      4  C4  UNL d   1       0.517   2.589  -1.451  0.00  0.00    -0.042 A 
ATOM      5  C5  UNL d   1      -0.121   3.516  -0.635  0.00  0.00     0.033 A 
ATOM      6  C6  UNL d   1      -0.736   3.098   0.549  0.00  0.00    -0.057 A 
ENDROOT
BRANCH   1   7
ATOM      7  N   UNL d   1      -1.437   1.392   2.092  0.00  0.00    -0.732 N 
ATOM      8  C   UNL d   1      -1.637  -0.002   2.426  0.00  0.00     0.284 C 
ATOM      9  H3  UNL d   1      -1.224   1.984   2.891  0.00  0.00     0.395 HD
ENDBRANCH   1   7
TORSDOF 1
ENDMDL
