MODEL 1
REMARK minimizedAffinity 1.98136795
REMARK minimizedRMSD -1
REMARK  1 active torsions:
REMARK  status: ('A' for Active; 'I' for Inactive)
REMARK    1  A    between atoms: N_2  and  C1_3 
ROOT
ATOM      1  C1  UNL d   1      -1.251   2.079   0.818  0.00  0.00     0.143 A 
ATOM      2  C2  UNL d   1      -0.606   1.350  -0.187  0.00  0.00    -0.057 A 
ATOM      3  C3  UNL d   1       0.027   1.993  -1.258  0.00  0.00     0.033 A 
ATOM      4  C4  UNL d   1       0.000   3.380  -1.359  0.00  0.00    -0.042 A 
ATOM      5  C5  UNL d   1      -0.656   4.124  -0.385  0.00  0.00     0.033 A 
ATOM      6  C6  UNL d   1      -1.280   3.476   0.686  0.00  0.00    -0.057 A 
ENDROOT
BRANCH   1   7
ATOM      7  N   UNL d   1      -1.982   1.495   1.855  0.00  0.00    -0.732 N 
ATOM      8  C   UNL d   1      -1.625   0.188   2.363  0.00  0.00     0.284 C 
ATOM      9  H3  UNL d   1      -2.237   2.166   2.576  0.00  0.00     0.395 HD
ENDBRANCH   1   7
TORSDOF 1
ENDMDL
