MODEL 1
REMARK minimizedAffinity 5.70738411
REMARK minimizedRMSD -1
REMARK  1 active torsions:
REMARK  status: ('A' for Active; 'I' for Inactive)
REMARK    1  A    between atoms: N_2  and  C1_3 
ROOT
ATOM      1  C1  UNL d   1       0.395   1.218  -0.202  0.00  0.00     0.143 A 
ATOM      2  C2  UNL d   1       1.458   0.406   0.210  0.00  0.00    -0.057 A 
ATOM      3  C3  UNL d   1       1.695   0.154   1.567  0.00  0.00     0.033 A 
ATOM      4  C4  UNL d   1       0.889   0.735   2.540  0.00  0.00    -0.042 A 
ATOM      5  C5  UNL d   1      -0.158   1.565   2.154  0.00  0.00     0.033 A 
ATOM      6  C6  UNL d   1      -0.394   1.808   0.798  0.00  0.00    -0.057 A 
ENDROOT
BRANCH   1   7
ATOM      7  N   UNL d   1       0.167   1.585  -1.530  0.00  0.00    -0.732 N 
ATOM      8  C   UNL d   1       0.181   2.978  -1.922  0.00  0.00     0.284 C 
ATOM      9  H3  UNL d   1       0.629   0.963  -2.190  0.00  0.00     0.395 HD
ENDBRANCH   1   7
TORSDOF 1
ENDMDL
