MODEL 1
REMARK minimizedAffinity 11.3163462
REMARK minimizedRMSD -1
REMARK  1 active torsions:
REMARK  status: ('A' for Active; 'I' for Inactive)
REMARK    1  A    between atoms: N_2  and  C1_3 
ROOT
ATOM      1  C1  UNL d   1       0.765   0.848   1.714  0.00  0.00     0.143 A 
ATOM      2  C2  UNL d   1       1.179   2.130   2.090  0.00  0.00    -0.057 A 
ATOM      3  C3  UNL d   1       0.313   3.006   2.756  0.00  0.00     0.033 A 
ATOM      4  C4  UNL d   1      -0.995   2.624   3.033  0.00  0.00    -0.042 A 
ATOM      5  C5  UNL d   1      -1.436   1.364   2.646  0.00  0.00     0.033 A 
ATOM      6  C6  UNL d   1      -0.565   0.491   1.987  0.00  0.00    -0.057 A 
ENDROOT
BRANCH   1   7
ATOM      7  N   UNL d   1       1.546  -0.033   0.962  0.00  0.00    -0.732 N 
ATOM      8  C   UNL d   1       2.980  -0.093   1.152  0.00  0.00     0.284 C 
ATOM      9  H3  UNL d   1       1.104  -0.942   0.845  0.00  0.00     0.395 HD
ENDBRANCH   1   7
TORSDOF 1
ENDMDL
