MODEL 1
REMARK minimizedAffinity 9.6136446
REMARK minimizedRMSD -1
REMARK  0 active torsions:
REMARK  status: ('A' for Active; 'I' for Inactive)
ROOT
ATOM      1  N1  IND d   1      -5.773  -1.422   1.578  0.00  0.00    -0.196 N 
ATOM      2  C2  IND d   1      -6.000  -2.591   2.249  0.00  0.00     0.054 A 
ATOM      3  C3  IND d   1      -5.169  -2.692   3.311  0.00  0.00    -0.031 A 
ATOM      4  C4  IND d   1      -3.429  -1.013   4.193  0.00  0.00     0.051 A 
ATOM      5  C5  IND d   1      -2.837   0.182   3.893  0.00  0.00    -0.031 A 
ATOM      6  C6  IND d   1      -3.202   0.919   2.786  0.00  0.00     0.015 A 
ATOM      7  C7  IND d   1      -4.185   0.493   1.939  0.00  0.00    -0.016 A 
ATOM      8  C8  IND d   1      -4.784  -0.723   2.236  0.00  0.00    -0.047 A 
ATOM      9  C9  IND d   1      -4.388  -1.496   3.335  0.00  0.00    -0.096 A 
ATOM     10  HN1 IND d   1      -6.179  -1.166   0.864  0.00  0.00     0.298 HD
ENDROOT
TORSDOF 0
ENDMDL
