MODEL 1
REMARK minimizedAffinity 17.8644447
REMARK minimizedRMSD -1
REMARK  0 active torsions:
REMARK  status: ('A' for Active; 'I' for Inactive)
ROOT
ATOM      1  N1  IND d   1       1.498   1.375   5.216  0.00  0.00    -0.196 N 
ATOM      2  C2  IND d   1       1.117   2.429   6.000  0.00  0.00     0.054 A 
ATOM      3  C3  IND d   1      -0.006   2.999   5.509  0.00  0.00    -0.031 A 
ATOM      4  C4  IND d   1      -1.443   2.305   3.489  0.00  0.00     0.051 A 
ATOM      5  C5  IND d   1      -1.479   1.426   2.443  0.00  0.00    -0.031 A 
ATOM      6  C6  IND d   1      -0.505   0.464   2.266  0.00  0.00     0.015 A 
ATOM      7  C7  IND d   1       0.538   0.338   3.138  0.00  0.00    -0.016 A 
ATOM      8  C8  IND d   1       0.581   1.233   4.198  0.00  0.00    -0.047 A 
ATOM      9  C9  IND d   1      -0.381   2.238   4.359  0.00  0.00    -0.096 A 
ATOM     10  HN1 IND d   1       2.193   0.884   5.338  0.00  0.00     0.298 HD
ENDROOT
TORSDOF 0
ENDMDL
