MODEL 1
REMARK minimizedAffinity 13.2776203
REMARK minimizedRMSD -1
REMARK  0 active torsions:
REMARK  status: ('A' for Active; 'I' for Inactive)
ROOT
ATOM      1  N1  IND d   1      -4.731  -2.263  -5.173  0.00  0.00    -0.196 N 
ATOM      2  C2  IND d   1      -5.592  -2.932  -5.998  0.00  0.00     0.054 A 
ATOM      3  C3  IND d   1      -5.310  -4.254  -5.999  0.00  0.00    -0.031 A 
ATOM      4  C4  IND d   1      -3.547  -5.552  -4.644  0.00  0.00     0.051 A 
ATOM      5  C5  IND d   1      -2.502  -5.370  -3.783  0.00  0.00    -0.031 A 
ATOM      6  C6  IND d   1      -2.141  -4.117  -3.329  0.00  0.00     0.015 A 
ATOM      7  C7  IND d   1      -2.822  -2.997  -3.713  0.00  0.00    -0.016 A 
ATOM      8  C8  IND d   1      -3.879  -3.178  -4.594  0.00  0.00    -0.047 A 
ATOM      9  C9  IND d   1      -4.223  -4.441  -5.091  0.00  0.00    -0.096 A 
ATOM     10  HN1 IND d   1      -4.723  -1.414  -5.039  0.00  0.00     0.298 HD
ENDROOT
TORSDOF 0
ENDMDL
