MODEL 1
REMARK minimizedAffinity 13.0275927
REMARK minimizedRMSD -1
REMARK  0 active torsions:
REMARK  status: ('A' for Active; 'I' for Inactive)
ROOT
ATOM      1  N1  IND d   1      -2.285  -0.556  -3.421  0.00  0.00    -0.196 N 
ATOM      2  C2  IND d   1      -1.078   0.023  -3.143  0.00  0.00     0.054 A 
ATOM      3  C3  IND d   1      -0.164  -0.923  -2.827  0.00  0.00    -0.031 A 
ATOM      4  C4  IND d   1      -0.405  -3.486  -2.803  0.00  0.00     0.051 A 
ATOM      5  C5  IND d   1      -1.329  -4.482  -2.951  0.00  0.00    -0.031 A 
ATOM      6  C6  IND d   1      -2.644  -4.216  -3.272  0.00  0.00     0.015 A 
ATOM      7  C7  IND d   1      -3.084  -2.938  -3.470  0.00  0.00    -0.016 A 
ATOM      8  C8  IND d   1      -2.151  -1.923  -3.314  0.00  0.00    -0.047 A 
ATOM      9  C9  IND d   1      -0.825  -2.184  -2.946  0.00  0.00    -0.096 A 
ATOM     10  HN1 IND d   1      -3.006  -0.136  -3.629  0.00  0.00     0.298 HD
ENDROOT
TORSDOF 0
ENDMDL
