MODEL 1
REMARK minimizedAffinity 19.0454807
REMARK minimizedRMSD -1
REMARK  0 active torsions:
REMARK  status: ('A' for Active; 'I' for Inactive)
ROOT
ATOM      1  N1  IND d   1       2.536   1.117  -3.957  0.00  0.00    -0.196 N 
ATOM      2  C2  IND d   1       1.930  -0.010  -4.439  0.00  0.00     0.054 A 
ATOM      3  C3  IND d   1       2.007  -1.009  -3.532  0.00  0.00    -0.031 A 
ATOM      4  C4  IND d   1       2.993  -0.988  -1.154  0.00  0.00     0.051 A 
ATOM      5  C5  IND d   1       3.690  -0.198  -0.284  0.00  0.00    -0.031 A 
ATOM      6  C6  IND d   1       4.042   1.099  -0.599  0.00  0.00     0.015 A 
ATOM      7  C7  IND d   1       3.700   1.659  -1.797  0.00  0.00    -0.016 A 
ATOM      8  C8  IND d   1       2.998   0.857  -2.686  0.00  0.00    -0.047 A 
ATOM      9  C9  IND d   1       2.675  -0.473  -2.389  0.00  0.00    -0.096 A 
ATOM     10  HN1 IND d   1       2.616   1.863  -4.378  0.00  0.00     0.298 HD
ENDROOT
TORSDOF 0
ENDMDL
