MODEL 1
REMARK minimizedAffinity 11.3588915
REMARK minimizedRMSD -1
REMARK  0 active torsions:
REMARK  status: ('A' for Active; 'I' for Inactive)
ROOT
ATOM      1  N1  IND d   1      -4.966  -3.740  -5.998  0.00  0.00    -0.196 N 
ATOM      2  C2  IND d   1      -5.715  -4.883  -6.000  0.00  0.00     0.054 A 
ATOM      3  C3  IND d   1      -5.245  -5.755  -5.080  0.00  0.00    -0.031 A 
ATOM      4  C4  IND d   1      -3.323  -5.473  -3.391  0.00  0.00     0.051 A 
ATOM      5  C5  IND d   1      -2.321  -4.615  -3.033  0.00  0.00    -0.031 A 
ATOM      6  C6  IND d   1      -2.148  -3.395  -3.655  0.00  0.00     0.015 A 
ATOM      7  C7  IND d   1      -2.981  -2.982  -4.656  0.00  0.00    -0.016 A 
ATOM      8  C8  IND d   1      -3.995  -3.854  -5.027  0.00  0.00    -0.047 A 
ATOM      9  C9  IND d   1      -4.149  -5.110  -4.428  0.00  0.00    -0.096 A 
ATOM     10  HN1 IND d   1      -5.082  -3.063  -6.516  0.00  0.00     0.298 HD
ENDROOT
TORSDOF 0
ENDMDL
