MODEL 1
REMARK minimizedAffinity 6.79413366
REMARK minimizedRMSD -1
REMARK  0 active torsions:
REMARK  status: ('A' for Active; 'I' for Inactive)
ROOT
ATOM      1  N1  IND d   1       3.458  -6.000  -1.824  0.00  0.00    -0.196 N 
ATOM      2  C2  IND d   1       4.477  -6.000  -0.913  0.00  0.00     0.054 A 
ATOM      3  C3  IND d   1       4.627  -4.769  -0.375  0.00  0.00    -0.031 A 
ATOM      4  C4  IND d   1       3.246  -2.632  -0.769  0.00  0.00     0.051 A 
ATOM      5  C5  IND d   1       2.235  -2.130  -1.539  0.00  0.00    -0.031 A 
ATOM      6  C6  IND d   1       1.565  -2.908  -2.461  0.00  0.00     0.015 A 
ATOM      7  C7  IND d   1       1.874  -4.227  -2.639  0.00  0.00    -0.016 A 
ATOM      8  C8  IND d   1       2.905  -4.739  -1.863  0.00  0.00    -0.047 A 
ATOM      9  C9  IND d   1       3.617  -3.943  -0.957  0.00  0.00    -0.096 A 
ATOM     10  HN1 IND d   1       3.205  -6.674  -2.294  0.00  0.00     0.298 HD
ENDROOT
TORSDOF 0
ENDMDL
