MODEL 1
REMARK minimizedAffinity 6.42946148
REMARK minimizedRMSD -1
REMARK  0 active torsions:
REMARK  status: ('A' for Active; 'I' for Inactive)
ROOT
ATOM      1  N1  IND d   1       1.345  -1.219   0.095  0.00  0.00    -0.196 N 
ATOM      2  C2  IND d   1       1.577  -2.082  -0.940  0.00  0.00     0.054 A 
ATOM      3  C3  IND d   1       2.048  -1.411  -2.015  0.00  0.00    -0.031 A 
ATOM      4  C4  IND d   1       2.612   1.089  -2.264  0.00  0.00     0.051 A 
ATOM      5  C5  IND d   1       2.534   2.282  -1.602  0.00  0.00    -0.031 A 
ATOM      6  C6  IND d   1       2.049   2.370  -0.314  0.00  0.00     0.015 A 
ATOM      7  C7  IND d   1       1.632   1.262   0.368  0.00  0.00    -0.016 A 
ATOM      8  C8  IND d   1       1.703   0.050  -0.304  0.00  0.00    -0.047 A 
ATOM      9  C9  IND d   1       2.155  -0.040  -1.627  0.00  0.00    -0.096 A 
ATOM     10  HN1 IND d   1       1.029  -1.434   0.865  0.00  0.00     0.298 HD
ENDROOT
TORSDOF 0
ENDMDL
