MODEL 1
REMARK minimizedAffinity 15.7413073
REMARK minimizedRMSD -1
REMARK  0 active torsions:
REMARK  status: ('A' for Active; 'I' for Inactive)
ROOT
ATOM      1  N1  IND d   1       2.341  -0.513  -3.548  0.00  0.00    -0.196 N 
ATOM      2  C2  IND d   1       1.999   0.416  -4.491  0.00  0.00     0.054 A 
ATOM      3  C3  IND d   1       2.287   1.662  -4.050  0.00  0.00    -0.031 A 
ATOM      4  C4  IND d   1       3.416   2.401  -1.858  0.00  0.00     0.051 A 
ATOM      5  C5  IND d   1       3.877   1.915  -0.667  0.00  0.00    -0.031 A 
ATOM      6  C6  IND d   1       3.852   0.568  -0.370  0.00  0.00     0.015 A 
ATOM      7  C7  IND d   1       3.373  -0.349  -1.262  0.00  0.00    -0.016 A 
ATOM      8  C8  IND d   1       2.897   0.141  -2.470  0.00  0.00    -0.047 A 
ATOM      9  C9  IND d   1       2.881   1.512  -2.760  0.00  0.00    -0.096 A 
ATOM     10  HN1 IND d   1       2.228  -1.362  -3.616  0.00  0.00     0.298 HD
ENDROOT
TORSDOF 0
ENDMDL
