MODEL 1
REMARK minimizedAffinity 12.8740749
REMARK minimizedRMSD -1
REMARK  0 active torsions:
REMARK  status: ('A' for Active; 'I' for Inactive)
ROOT
ATOM      1  N1  IND d   1      -2.279   2.564  -4.294  0.00  0.00    -0.196 N 
ATOM      2  C2  IND d   1      -1.011   2.946  -3.954  0.00  0.00     0.054 A 
ATOM      3  C3  IND d   1      -0.784   4.221  -4.342  0.00  0.00    -0.031 A 
ATOM      4  C4  IND d   1      -2.383   5.900  -5.461  0.00  0.00     0.051 A 
ATOM      5  C5  IND d   1      -3.635   6.000  -6.000  0.00  0.00    -0.031 A 
ATOM      6  C6  IND d   1      -4.518   4.939  -5.995  0.00  0.00     0.015 A 
ATOM      7  C7  IND d   1      -4.184   3.737  -5.439  0.00  0.00    -0.016 A 
ATOM      8  C8  IND d   1      -2.911   3.629  -4.897  0.00  0.00    -0.047 A 
ATOM      9  C9  IND d   1      -1.996   4.689  -4.936  0.00  0.00    -0.096 A 
ATOM     10  HN1 IND d   1      -2.624   1.789  -4.155  0.00  0.00     0.298 HD
ENDROOT
TORSDOF 0
ENDMDL
