MODEL 1
REMARK minimizedAffinity 15.0333719
REMARK minimizedRMSD -1
REMARK  0 active torsions:
REMARK  status: ('A' for Active; 'I' for Inactive)
ROOT
ATOM      1  N1  IND d   1      -2.747  -1.346   3.331  0.00  0.00    -0.196 N 
ATOM      2  C2  IND d   1      -3.957  -0.752   3.101  0.00  0.00     0.054 A 
ATOM      3  C3  IND d   1      -3.786   0.547   2.765  0.00  0.00    -0.031 A 
ATOM      4  C4  IND d   1      -1.608   1.878   2.434  0.00  0.00     0.051 A 
ATOM      5  C5  IND d   1      -0.251   1.774   2.565  0.00  0.00    -0.031 A 
ATOM      6  C6  IND d   1       0.355   0.601   2.964  0.00  0.00     0.015 A 
ATOM      7  C7  IND d   1      -0.375  -0.521   3.237  0.00  0.00    -0.016 A 
ATOM      8  C8  IND d   1      -1.754  -0.418   3.111  0.00  0.00    -0.047 A 
ATOM      9  C9  IND d   1      -2.377   0.783   2.748  0.00  0.00    -0.096 A 
ATOM     10  HN1 IND d   1      -2.627  -2.162   3.573  0.00  0.00     0.298 HD
ENDROOT
TORSDOF 0
ENDMDL
