MODEL 1
REMARK minimizedAffinity 22.3221855
REMARK minimizedRMSD -1
REMARK  0 active torsions:
REMARK  status: ('A' for Active; 'I' for Inactive)
ROOT
ATOM      1  N1  IND d   1      -4.195  -4.456  -3.903  0.00  0.00    -0.196 N 
ATOM      2  C2  IND d   1      -4.257  -3.473  -4.851  0.00  0.00     0.054 A 
ATOM      3  C3  IND d   1      -3.109  -2.759  -4.865  0.00  0.00    -0.031 A 
ATOM      4  C4  IND d   1      -0.957  -3.096  -3.492  0.00  0.00     0.051 A 
ATOM      5  C5  IND d   1      -0.436  -3.842  -2.473  0.00  0.00    -0.031 A 
ATOM      6  C6  IND d   1      -1.154  -4.853  -1.868  0.00  0.00     0.015 A 
ATOM      7  C7  IND d   1      -2.422  -5.165  -2.269  0.00  0.00    -0.016 A 
ATOM      8  C8  IND d   1      -2.958  -4.404  -3.299  0.00  0.00    -0.047 A 
ATOM      9  C9  IND d   1      -2.249  -3.349  -3.888  0.00  0.00    -0.096 A 
ATOM     10  HN1 IND d   1      -4.822  -5.013  -3.716  0.00  0.00     0.298 HD
ENDROOT
TORSDOF 0
ENDMDL
