MODEL 1
REMARK minimizedAffinity 25.2870522
REMARK minimizedRMSD -1
REMARK  0 active torsions:
REMARK  status: ('A' for Active; 'I' for Inactive)
ROOT
ATOM      1  N1  IND d   1       2.092   4.875  -1.925  0.00  0.00    -0.196 N 
ATOM      2  C2  IND d   1       1.625   5.756  -0.989  0.00  0.00     0.054 A 
ATOM      3  C3  IND d   1       1.716   5.220   0.249  0.00  0.00    -0.031 A 
ATOM      4  C4  IND d   1       2.693   2.954   0.981  0.00  0.00     0.051 A 
ATOM      5  C5  IND d   1       3.206   1.790   0.482  0.00  0.00    -0.031 A 
ATOM      6  C6  IND d   1       3.380   1.592  -0.873  0.00  0.00     0.015 A 
ATOM      7  C7  IND d   1       3.057   2.560  -1.781  0.00  0.00    -0.016 A 
ATOM      8  C8  IND d   1       2.529   3.740  -1.278  0.00  0.00    -0.047 A 
ATOM      9  C9  IND d   1       2.310   3.930   0.092  0.00  0.00    -0.096 A 
ATOM     10  HN1 IND d   1       2.109   5.008  -2.774  0.00  0.00     0.298 HD
ENDROOT
TORSDOF 0
ENDMDL
