MODEL 1
REMARK minimizedAffinity 2.14822221
REMARK minimizedRMSD -1
REMARK  0 active torsions:
REMARK  status: ('A' for Active; 'I' for Inactive)
ROOT
ATOM      1  N1  IND d   1      -4.877  -4.774  -4.976  0.00  0.00    -0.196 N 
ATOM      2  C2  IND d   1      -4.681  -3.885  -5.995  0.00  0.00     0.054 A 
ATOM      3  C3  IND d   1      -3.402  -3.448  -5.999  0.00  0.00    -0.031 A 
ATOM      4  C4  IND d   1      -1.434  -4.138  -4.489  0.00  0.00     0.051 A 
ATOM      5  C5  IND d   1      -1.132  -4.894  -3.391  0.00  0.00    -0.031 A 
ATOM      6  C6  IND d   1      -2.082  -5.666  -2.754  0.00  0.00     0.015 A 
ATOM      7  C7  IND d   1      -3.372  -5.720  -3.200  0.00  0.00    -0.016 A 
ATOM      8  C8  IND d   1      -3.684  -4.949  -4.311  0.00  0.00    -0.047 A 
ATOM      9  C9  IND d   1      -2.734  -4.130  -4.936  0.00  0.00    -0.096 A 
ATOM     10  HN1 IND d   1      -5.621  -5.160  -4.783  0.00  0.00     0.298 HD
ENDROOT
TORSDOF 0
ENDMDL
