MODEL 1
REMARK minimizedAffinity 8.48901749
REMARK minimizedRMSD -1
REMARK  0 active torsions:
REMARK  status: ('A' for Active; 'I' for Inactive)
ROOT
ATOM      1  N1  IND d   1      -5.009   1.369   3.088  0.00  0.00    -0.196 N 
ATOM      2  C2  IND d   1      -4.512   2.207   2.129  0.00  0.00     0.054 A 
ATOM      3  C3  IND d   1      -3.259   2.598   2.450  0.00  0.00    -0.031 A 
ATOM      4  C4  IND d   1      -1.790   1.904   4.447  0.00  0.00     0.051 A 
ATOM      5  C5  IND d   1      -1.821   1.186   5.609  0.00  0.00    -0.031 A 
ATOM      6  C6  IND d   1      -2.939   0.475   5.997  0.00  0.00     0.015 A 
ATOM      7  C7  IND d   1      -4.067   0.447   5.227  0.00  0.00    -0.016 A 
ATOM      8  C8  IND d   1      -4.041   1.181   4.050  0.00  0.00    -0.047 A 
ATOM      9  C9  IND d   1      -2.925   1.939   3.673  0.00  0.00    -0.096 A 
ATOM     10  HN1 IND d   1      -5.794   1.018   3.089  0.00  0.00     0.298 HD
ENDROOT
TORSDOF 0
ENDMDL
