MODEL 1
REMARK minimizedAffinity 5.39262056
REMARK minimizedRMSD -1
REMARK  0 active torsions:
REMARK  status: ('A' for Active; 'I' for Inactive)
ROOT
ATOM      1  N1  IND d   1       1.364   3.842  -2.912  0.00  0.00    -0.196 N 
ATOM      2  C2  IND d   1       1.136   2.510  -3.120  0.00  0.00     0.054 A 
ATOM      3  C3  IND d   1       1.011   1.864  -1.939  0.00  0.00    -0.031 A 
ATOM      4  C4  IND d   1       1.044   2.812   0.455  0.00  0.00     0.051 A 
ATOM      5  C5  IND d   1       1.259   3.966   1.153  0.00  0.00    -0.031 A 
ATOM      6  C6  IND d   1       1.522   5.164   0.520  0.00  0.00     0.015 A 
ATOM      7  C7  IND d   1       1.569   5.253  -0.843  0.00  0.00    -0.016 A 
ATOM      8  C8  IND d   1       1.359   4.081  -1.555  0.00  0.00    -0.047 A 
ATOM      9  C9  IND d   1       1.134   2.855  -0.917  0.00  0.00    -0.096 A 
ATOM     10  HN1 IND d   1       1.489   4.431  -3.525  0.00  0.00     0.298 HD
ENDROOT
TORSDOF 0
ENDMDL
