MODEL 1
REMARK minimizedAffinity -2.13561821
REMARK minimizedRMSD -1
REMARK  0 active torsions:
REMARK  status: ('A' for Active; 'I' for Inactive)
ROOT
ATOM      1  C   UNL d   1       6.000   4.125  -5.254  0.00  0.00     0.023 A 
ATOM      2  C1  UNL d   1       4.967   3.490  -4.564  0.00  0.00     0.003 A 
ATOM      3  C2  UNL d   1       3.678   4.026  -4.586  0.00  0.00     0.048 A 
ATOM      4  C3  UNL d   1       3.428   5.196  -5.302  0.00  0.00     0.023 A 
ATOM      5  C4  UNL d   1       4.458   5.834  -5.995  0.00  0.00     0.048 A 
ATOM      6  C5  UNL d   1       5.746   5.295  -5.969  0.00  0.00     0.003 A 
ATOM      7  I   UNL d   1       1.510   5.995  -5.338  0.00  0.00    -0.146 I 
ENDROOT
TORSDOF 0
ENDMDL
