MODEL 1
REMARK minimizedAffinity 0.856020749
REMARK minimizedRMSD -1
REMARK  0 active torsions:
REMARK  status: ('A' for Active; 'I' for Inactive)
ROOT
ATOM      1  C   UNL d   1      -3.199   5.995  -2.362  0.00  0.00     0.023 A 
ATOM      2  C1  UNL d   1      -1.956   5.997  -1.728  0.00  0.00     0.003 A 
ATOM      3  C2  UNL d   1      -0.784   5.995  -2.487  0.00  0.00     0.048 A 
ATOM      4  C3  UNL d   1      -0.862   5.992  -3.880  0.00  0.00     0.023 A 
ATOM      5  C4  UNL d   1      -2.104   5.990  -4.518  0.00  0.00     0.048 A 
ATOM      6  C5  UNL d   1      -3.273   5.991  -3.755  0.00  0.00     0.003 A 
ATOM      7  I   UNL d   1       0.881   5.988  -5.012  0.00  0.00    -0.146 I 
ENDROOT
TORSDOF 0
ENDMDL
