MODEL 1
REMARK minimizedAffinity -0.891859651
REMARK minimizedRMSD -1
REMARK  0 active torsions:
REMARK  status: ('A' for Active; 'I' for Inactive)
ROOT
ATOM      1  C   UNL d   1      -3.089   5.999  -2.671  0.00  0.00     0.023 A 
ATOM      2  C1  UNL d   1      -3.235   5.997  -4.059  0.00  0.00     0.003 A 
ATOM      3  C2  UNL d   1      -2.106   5.996  -4.880  0.00  0.00     0.048 A 
ATOM      4  C3  UNL d   1      -0.834   5.996  -4.308  0.00  0.00     0.023 A 
ATOM      5  C4  UNL d   1      -0.684   5.998  -2.920  0.00  0.00     0.048 A 
ATOM      6  C5  UNL d   1      -1.815   6.000  -2.103  0.00  0.00     0.003 A 
ATOM      7  I   UNL d   1       0.848   5.994  -5.529  0.00  0.00    -0.146 I 
ENDROOT
TORSDOF 0
ENDMDL
