MODEL 1
REMARK minimizedAffinity 1.24400961
REMARK minimizedRMSD -1
REMARK  0 active torsions:
REMARK  status: ('A' for Active; 'I' for Inactive)
ROOT
ATOM      1  C   UNL d   1      -4.114   5.993  -2.410  0.00  0.00     0.023 A 
ATOM      2  C1  UNL d   1      -2.924   5.997  -1.681  0.00  0.00     0.003 A 
ATOM      3  C2  UNL d   1      -1.697   5.999  -2.346  0.00  0.00     0.048 A 
ATOM      4  C3  UNL d   1      -1.665   5.997  -3.740  0.00  0.00     0.023 A 
ATOM      5  C4  UNL d   1      -2.853   5.994  -4.473  0.00  0.00     0.048 A 
ATOM      6  C5  UNL d   1      -4.078   5.991  -3.804  0.00  0.00     0.003 A 
ATOM      7  I   UNL d   1       0.161   6.000  -4.732  0.00  0.00    -0.146 I 
ENDROOT
TORSDOF 0
ENDMDL
