MODEL 1
REMARK minimizedAffinity 9.20702648
REMARK minimizedRMSD -1
REMARK  0 active torsions:
REMARK  status: ('A' for Active; 'I' for Inactive)
ROOT
ATOM      1  C   UNL d   1      -3.155   5.970  -2.665  0.00  0.00     0.023 A 
ATOM      2  C1  UNL d   1      -3.467   5.605  -1.355  0.00  0.00     0.003 A 
ATOM      3  C2  UNL d   1      -2.480   5.074  -0.522  0.00  0.00     0.048 A 
ATOM      4  C3  UNL d   1      -1.182   4.911  -1.006  0.00  0.00     0.023 A 
ATOM      5  C4  UNL d   1      -0.864   5.275  -2.315  0.00  0.00     0.048 A 
ATOM      6  C5  UNL d   1      -1.855   5.805  -3.144  0.00  0.00     0.003 A 
ATOM      7  I   UNL d   1       0.290   4.121   0.232  0.00  0.00    -0.146 I 
ENDROOT
TORSDOF 0
ENDMDL
