MODEL 1
REMARK minimizedAffinity 1.88156712
REMARK minimizedRMSD -1
REMARK  0 active torsions:
REMARK  status: ('A' for Active; 'I' for Inactive)
ROOT
ATOM      1  C   UNL d   1      -4.809   5.997  -0.574  0.00  0.00     0.023 A 
ATOM      2  C1  UNL d   1      -4.827   5.999  -1.969  0.00  0.00     0.003 A 
ATOM      3  C2  UNL d   1      -3.628   6.000  -2.684  0.00  0.00     0.048 A 
ATOM      4  C3  UNL d   1      -2.414   5.996  -1.998  0.00  0.00     0.023 A 
ATOM      5  C4  UNL d   1      -2.391   5.993  -0.602  0.00  0.00     0.048 A 
ATOM      6  C5  UNL d   1      -3.592   5.994   0.108  0.00  0.00     0.003 A 
ATOM      7  I   UNL d   1      -0.627   5.997  -3.060  0.00  0.00    -0.146 I 
ENDROOT
TORSDOF 0
ENDMDL
