MODEL 1
REMARK minimizedAffinity 3.59028316
REMARK minimizedRMSD -1
REMARK  0 active torsions:
REMARK  status: ('A' for Active; 'I' for Inactive)
ROOT
ATOM      1  C   UNL d   1       1.818   1.606  -1.876  0.00  0.00     0.023 A 
ATOM      2  C1  UNL d   1       1.534   2.643  -0.987  0.00  0.00     0.003 A 
ATOM      3  C2  UNL d   1       1.144   2.354   0.323  0.00  0.00     0.048 A 
ATOM      4  C3  UNL d   1       1.041   1.027   0.737  0.00  0.00     0.023 A 
ATOM      5  C4  UNL d   1       1.326  -0.014  -0.149  0.00  0.00     0.048 A 
ATOM      6  C5  UNL d   1       1.714   0.279  -1.457  0.00  0.00     0.003 A 
ATOM      7  I   UNL d   1       0.461   0.595   2.685  0.00  0.00    -0.146 I 
ENDROOT
TORSDOF 0
ENDMDL
