MODEL 1
REMARK minimizedAffinity 0.109008603
REMARK minimizedRMSD -1
REMARK  0 active torsions:
REMARK  status: ('A' for Active; 'I' for Inactive)
ROOT
ATOM      1  C   UNL d   1      -1.948   5.997  -4.190  0.00  0.00     0.023 A 
ATOM      2  C1  UNL d   1      -0.907   5.997  -3.262  0.00  0.00     0.003 A 
ATOM      3  C2  UNL d   1       0.420   5.997  -3.699  0.00  0.00     0.048 A 
ATOM      4  C3  UNL d   1       0.697   5.997  -5.066  0.00  0.00     0.023 A 
ATOM      5  C4  UNL d   1      -0.342   5.998  -5.998  0.00  0.00     0.048 A 
ATOM      6  C5  UNL d   1      -1.666   5.997  -5.556  0.00  0.00     0.003 A 
ATOM      7  I   UNL d   1       2.670   5.996  -5.719  0.00  0.00    -0.146 I 
ENDROOT
TORSDOF 0
ENDMDL
