MODEL 1
REMARK minimizedAffinity 1.76273239
REMARK minimizedRMSD -1
REMARK  0 active torsions:
REMARK  status: ('A' for Active; 'I' for Inactive)
ROOT
ATOM      1  C   UNL d   1      -4.082   5.999  -2.375  0.00  0.00     0.023 A 
ATOM      2  C1  UNL d   1      -2.881   5.999  -1.665  0.00  0.00     0.003 A 
ATOM      3  C2  UNL d   1      -1.664   5.998  -2.349  0.00  0.00     0.048 A 
ATOM      4  C3  UNL d   1      -1.655   5.998  -3.744  0.00  0.00     0.023 A 
ATOM      5  C4  UNL d   1      -2.854   5.999  -4.458  0.00  0.00     0.048 A 
ATOM      6  C5  UNL d   1      -4.068   6.000  -3.770  0.00  0.00     0.003 A 
ATOM      7  I   UNL d   1       0.156   5.996  -4.765  0.00  0.00    -0.146 I 
ENDROOT
TORSDOF 0
ENDMDL
