MODEL 1
REMARK minimizedAffinity -3.62277818
REMARK minimizedRMSD -1
REMARK  0 active torsions:
REMARK  status: ('A' for Active; 'I' for Inactive)
ROOT
ATOM      1  C   UNL d   1      -2.376   5.995  -3.803  0.00  0.00     0.023 A 
ATOM      2  C1  UNL d   1      -1.430   6.000  -2.778  0.00  0.00     0.003 A 
ATOM      3  C2  UNL d   1      -0.067   6.000  -3.085  0.00  0.00     0.048 A 
ATOM      4  C3  UNL d   1       0.341   5.995  -4.418  0.00  0.00     0.023 A 
ATOM      5  C4  UNL d   1      -0.602   5.991  -5.447  0.00  0.00     0.048 A 
ATOM      6  C5  UNL d   1      -1.963   5.990  -5.135  0.00  0.00     0.003 A 
ATOM      7  I   UNL d   1       2.369   5.996  -4.877  0.00  0.00    -0.146 I 
ENDROOT
TORSDOF 0
ENDMDL
