MODEL 1
REMARK minimizedAffinity 1.38280809
REMARK minimizedRMSD -1
REMARK  0 active torsions:
REMARK  status: ('A' for Active; 'I' for Inactive)
ROOT
ATOM      1  C   UNL d   1       1.324   1.630  -1.493  0.00  0.00     0.023 A 
ATOM      2  C1  UNL d   1       1.535   2.585  -0.499  0.00  0.00     0.003 A 
ATOM      3  C2  UNL d   1       1.166   2.315   0.820  0.00  0.00     0.048 A 
ATOM      4  C3  UNL d   1       0.586   1.088   1.139  0.00  0.00     0.023 A 
ATOM      5  C4  UNL d   1       0.374   0.128   0.147  0.00  0.00     0.048 A 
ATOM      6  C5  UNL d   1       0.744   0.403  -1.170  0.00  0.00     0.003 A 
ATOM      7  I   UNL d   1       0.035   0.684   3.102  0.00  0.00    -0.146 I 
ENDROOT
TORSDOF 0
ENDMDL
