MODEL 1
REMARK minimizedAffinity -2.07463121
REMARK minimizedRMSD -1
REMARK  0 active torsions:
REMARK  status: ('A' for Active; 'I' for Inactive)
ROOT
ATOM      1  C   UNL d   1       6.000   4.223  -4.470  0.00  0.00     0.023 A 
ATOM      2  C1  UNL d   1       4.847   3.519  -4.123  0.00  0.00     0.003 A 
ATOM      3  C2  UNL d   1       3.590   4.027  -4.456  0.00  0.00     0.048 A 
ATOM      4  C3  UNL d   1       3.493   5.240  -5.137  0.00  0.00     0.023 A 
ATOM      5  C4  UNL d   1       4.643   5.948  -5.487  0.00  0.00     0.048 A 
ATOM      6  C5  UNL d   1       5.898   5.436  -5.152  0.00  0.00     0.003 A 
ATOM      7  I   UNL d   1       1.622   5.999  -5.634  0.00  0.00    -0.146 I 
ENDROOT
TORSDOF 0
ENDMDL
