MODEL 1
REMARK minimizedAffinity 7.09866142
REMARK minimizedRMSD -1
REMARK  0 active torsions:
REMARK  status: ('A' for Active; 'I' for Inactive)
ROOT
ATOM      1  C   UNL d   1       1.041   4.214  -5.187  0.00  0.00     0.023 A 
ATOM      2  C1  UNL d   1       1.195   5.483  -5.745  0.00  0.00     0.003 A 
ATOM      3  C2  UNL d   1       2.473   5.997  -5.972  0.00  0.00     0.048 A 
ATOM      4  C3  UNL d   1       3.593   5.236  -5.641  0.00  0.00     0.023 A 
ATOM      5  C4  UNL d   1       3.445   3.965  -5.084  0.00  0.00     0.048 A 
ATOM      6  C5  UNL d   1       2.165   3.456  -4.857  0.00  0.00     0.003 A 
ATOM      7  I   UNL d   1       5.497   5.999  -5.978  0.00  0.00    -0.146 I 
ENDROOT
TORSDOF 0
ENDMDL
