MODEL 1
REMARK minimizedAffinity 0.81618017
REMARK minimizedRMSD -1
REMARK  0 active torsions:
REMARK  status: ('A' for Active; 'I' for Inactive)
ROOT
ATOM      1  C   UNL d   1      -3.461   5.967  -1.050  0.00  0.00     0.023 A 
ATOM      2  C1  UNL d   1      -2.094   5.962  -0.770  0.00  0.00     0.003 A 
ATOM      3  C2  UNL d   1      -1.166   5.970  -1.814  0.00  0.00     0.048 A 
ATOM      4  C3  UNL d   1      -1.612   5.986  -3.135  0.00  0.00     0.023 A 
ATOM      5  C4  UNL d   1      -2.979   5.993  -3.420  0.00  0.00     0.048 A 
ATOM      6  C5  UNL d   1      -3.903   5.983  -2.373  0.00  0.00     0.003 A 
ATOM      7  I   UNL d   1      -0.234   5.999  -4.690  0.00  0.00    -0.146 I 
ENDROOT
TORSDOF 0
ENDMDL
