MODEL 1
REMARK minimizedAffinity 4.17427731
REMARK minimizedRMSD -1
REMARK  0 active torsions:
REMARK  status: ('A' for Active; 'I' for Inactive)
ROOT
ATOM      1  C   UNL d   1       1.117   4.382  -4.535  0.00  0.00     0.023 A 
ATOM      2  C1  UNL d   1       2.275   3.696  -4.170  0.00  0.00     0.003 A 
ATOM      3  C2  UNL d   1       3.524   4.158  -4.590  0.00  0.00     0.048 A 
ATOM      4  C3  UNL d   1       3.607   5.309  -5.374  0.00  0.00     0.023 A 
ATOM      5  C4  UNL d   1       2.451   6.000  -5.740  0.00  0.00     0.048 A 
ATOM      6  C5  UNL d   1       1.205   5.533  -5.318  0.00  0.00     0.003 A 
ATOM      7  I   UNL d   1       5.465   6.000  -6.000  0.00  0.00    -0.146 I 
ENDROOT
TORSDOF 0
ENDMDL
