MODEL 1
REMARK minimizedAffinity -0.0228407495
REMARK minimizedRMSD -1
REMARK  0 active torsions:
REMARK  status: ('A' for Active; 'I' for Inactive)
ROOT
ATOM      1  C   UNL d   1       5.440   3.928  -3.370  0.00  0.00     0.023 A 
ATOM      2  C1  UNL d   1       4.430   3.018  -3.683  0.00  0.00     0.003 A 
ATOM      3  C2  UNL d   1       3.227   3.470  -4.229  0.00  0.00     0.048 A 
ATOM      4  C3  UNL d   1       3.041   4.832  -4.461  0.00  0.00     0.023 A 
ATOM      5  C4  UNL d   1       4.049   5.746  -4.150  0.00  0.00     0.048 A 
ATOM      6  C5  UNL d   1       5.250   5.290  -3.603  0.00  0.00     0.003 A 
ATOM      7  I   UNL d   1       1.251   5.507  -5.273  0.00  0.00    -0.146 I 
ENDROOT
TORSDOF 0
ENDMDL
