MODEL 1
REMARK minimizedAffinity -4.05383301
REMARK minimizedRMSD -1
REMARK  1 active torsions:
REMARK  status: ('A' for Active; 'I' for Inactive)
REMARK    1  A    between atoms: N_2  and  C1_3 
ROOT
ATOM      1  C1  UNL d   1      -0.244   0.559  -0.780  0.00  0.00     0.143 A 
ATOM      2  C2  UNL d   1      -0.734   0.608   0.530  0.00  0.00    -0.057 A 
ATOM      3  C3  UNL d   1      -0.207  -0.214   1.533  0.00  0.00     0.033 A 
ATOM      4  C4  UNL d   1       0.803  -1.123   1.237  0.00  0.00    -0.042 A 
ATOM      5  C5  UNL d   1       1.288  -1.207  -0.063  0.00  0.00     0.033 A 
ATOM      6  C6  UNL d   1       0.763  -0.379  -1.059  0.00  0.00    -0.057 A 
ENDROOT
BRANCH   1   7
ATOM      7  N   UNL d   1      -0.792   1.280  -1.843  0.00  0.00    -0.732 N 
ATOM      8  C   UNL d   1      -0.012   2.285  -2.532  0.00  0.00     0.284 C 
ATOM      9  H3  UNL d   1      -1.355   0.697  -2.458  0.00  0.00     0.395 HD
ENDBRANCH   1   7
TORSDOF 1
ENDMDL
