MODEL 1
REMARK minimizedAffinity -3.02911758
REMARK minimizedRMSD -1
REMARK  1 active torsions:
REMARK  status: ('A' for Active; 'I' for Inactive)
REMARK    1  A    between atoms: N_2  and  C1_3 
ROOT
ATOM      1  C1  UNL d   1       1.630  -0.668   0.573  0.00  0.00     0.143 A 
ATOM      2  C2  UNL d   1       1.819  -1.016  -0.768  0.00  0.00    -0.057 A 
ATOM      3  C3  UNL d   1       0.964  -0.539  -1.769  0.00  0.00     0.033 A 
ATOM      4  C4  UNL d   1      -0.116   0.275  -1.441  0.00  0.00    -0.042 A 
ATOM      5  C5  UNL d   1      -0.337   0.613  -0.111  0.00  0.00     0.033 A 
ATOM      6  C6  UNL d   1       0.524   0.139   0.883  0.00  0.00    -0.057 A 
ENDROOT
BRANCH   1   7
ATOM      7  N   UNL d   1       2.386  -1.189   1.626  0.00  0.00    -0.732 N 
ATOM      8  C   UNL d   1       1.738  -1.799   2.767  0.00  0.00     0.284 C 
ATOM      9  H3  UNL d   1       3.212  -1.687   1.302  0.00  0.00     0.395 HD
ENDBRANCH   1   7
TORSDOF 1
ENDMDL
