MODEL 1
REMARK minimizedAffinity -2.07157493
REMARK minimizedRMSD -1
REMARK  1 active torsions:
REMARK  status: ('A' for Active; 'I' for Inactive)
REMARK    1  A    between atoms: N_2  and  C1_3 
ROOT
ATOM      1  C1  UNL d   1      -0.630   0.911  -1.246  0.00  0.00     0.143 A 
ATOM      2  C2  UNL d   1       0.637   0.505  -0.813  0.00  0.00    -0.057 A 
ATOM      3  C3  UNL d   1       0.818  -0.097   0.438  0.00  0.00     0.033 A 
ATOM      4  C4  UNL d   1      -0.264  -0.277   1.293  0.00  0.00    -0.042 A 
ATOM      5  C5  UNL d   1      -1.528   0.141   0.894  0.00  0.00     0.033 A 
ATOM      6  C6  UNL d   1      -1.704   0.735  -0.359  0.00  0.00    -0.057 A 
ENDROOT
BRANCH   1   7
ATOM      7  N   UNL d   1      -0.860   1.604  -2.437  0.00  0.00    -0.732 N 
ATOM      8  C   UNL d   1      -0.252   2.897  -2.667  0.00  0.00     0.284 C 
ATOM      9  H3  UNL d   1      -0.855   0.992  -3.250  0.00  0.00     0.395 HD
ENDBRANCH   1   7
TORSDOF 1
ENDMDL
