MODEL 1
REMARK minimizedAffinity -2.40644455
REMARK minimizedRMSD -1
REMARK  1 active torsions:
REMARK  status: ('A' for Active; 'I' for Inactive)
REMARK    1  A    between atoms: N_2  and  C1_3 
ROOT
ATOM      1  C1  UNL d   1       0.172   0.289   0.510  0.00  0.00     0.143 A 
ATOM      2  C2  UNL d   1      -0.519  -0.398   1.514  0.00  0.00    -0.057 A 
ATOM      3  C3  UNL d   1       0.163  -1.127   2.496  0.00  0.00     0.033 A 
ATOM      4  C4  UNL d   1       1.551  -1.207   2.474  0.00  0.00    -0.042 A 
ATOM      5  C5  UNL d   1       2.258  -0.553   1.470  0.00  0.00     0.033 A 
ATOM      6  C6  UNL d   1       1.572   0.179   0.496  0.00  0.00    -0.057 A 
ENDROOT
BRANCH   1   7
ATOM      7  N   UNL d   1      -0.451   0.950  -0.551  0.00  0.00    -0.732 N 
ATOM      8  C   UNL d   1      -0.530   0.335  -1.858  0.00  0.00     0.284 C 
ATOM      9  H3  UNL d   1      -1.303   1.427  -0.264  0.00  0.00     0.395 HD
ENDBRANCH   1   7
TORSDOF 1
ENDMDL
