MODEL 1
REMARK minimizedAffinity -2.92276525
REMARK minimizedRMSD -1
REMARK  1 active torsions:
REMARK  status: ('A' for Active; 'I' for Inactive)
REMARK    1  A    between atoms: N_2  and  C1_3 
ROOT
ATOM      1  C1  UNL d   1      -0.142   0.441  -1.224  0.00  0.00     0.143 A 
ATOM      2  C2  UNL d   1       0.543  -0.513  -1.985  0.00  0.00    -0.057 A 
ATOM      3  C3  UNL d   1       1.598  -1.255  -1.442  0.00  0.00     0.033 A 
ATOM      4  C4  UNL d   1       2.007  -1.036  -0.131  0.00  0.00    -0.042 A 
ATOM      5  C5  UNL d   1       1.358  -0.076   0.637  0.00  0.00     0.033 A 
ATOM      6  C6  UNL d   1       0.300   0.658   0.091  0.00  0.00    -0.057 A 
ENDROOT
BRANCH   1   7
ATOM      7  N   UNL d   1      -1.134   1.280  -1.737  0.00  0.00    -0.732 N 
ATOM      8  C   UNL d   1      -0.828   2.225  -2.789  0.00  0.00     0.284 C 
ATOM      9  H3  UNL d   1      -2.025   0.802  -1.853  0.00  0.00     0.395 HD
ENDBRANCH   1   7
TORSDOF 1
ENDMDL
