MODEL 1
REMARK minimizedAffinity -3.62173438
REMARK minimizedRMSD -1
REMARK  1 active torsions:
REMARK  status: ('A' for Active; 'I' for Inactive)
REMARK    1  A    between atoms: N_2  and  C1_3 
ROOT
ATOM      1  C1  UNL d   1       0.193   1.369  -0.792  0.00  0.00     0.143 A 
ATOM      2  C2  UNL d   1      -0.989   0.644  -0.606  0.00  0.00    -0.057 A 
ATOM      3  C3  UNL d   1      -1.022  -0.494   0.209  0.00  0.00     0.033 A 
ATOM      4  C4  UNL d   1       0.138  -0.945   0.831  0.00  0.00    -0.042 A 
ATOM      5  C5  UNL d   1       1.329  -0.254   0.640  0.00  0.00     0.033 A 
ATOM      6  C6  UNL d   1       1.354   0.885  -0.169  0.00  0.00    -0.057 A 
ENDROOT
BRANCH   1   7
ATOM      7  N   UNL d   1       0.312   2.451  -1.668  0.00  0.00    -0.732 N 
ATOM      8  C   UNL d   1      -0.866   3.100  -2.203  0.00  0.00     0.284 C 
ATOM      9  H3  UNL d   1       1.052   3.093  -1.394  0.00  0.00     0.395 HD
ENDBRANCH   1   7
TORSDOF 1
ENDMDL
