MODEL 1
REMARK minimizedAffinity -0.531306505
REMARK minimizedRMSD -1
REMARK  1 active torsions:
REMARK  status: ('A' for Active; 'I' for Inactive)
REMARK    1  A    between atoms: N_2  and  C1_3 
ROOT
ATOM      1  C1  UNL d   1      -0.032   0.052  -0.212  0.00  0.00     0.143 A 
ATOM      2  C2  UNL d   1      -0.974  -0.543   0.634  0.00  0.00    -0.057 A 
ATOM      3  C3  UNL d   1      -0.598  -1.095   1.865  0.00  0.00     0.033 A 
ATOM      4  C4  UNL d   1       0.736  -1.086   2.259  0.00  0.00    -0.042 A 
ATOM      5  C5  UNL d   1       1.693  -0.522   1.423  0.00  0.00     0.033 A 
ATOM      6  C6  UNL d   1       1.310   0.033   0.198  0.00  0.00    -0.057 A 
ENDROOT
BRANCH   1   7
ATOM      7  N   UNL d   1      -0.328   0.530  -1.491  0.00  0.00    -0.732 N 
ATOM      8  C   UNL d   1      -1.343   1.543  -1.683  0.00  0.00     0.284 C 
ATOM      9  H3  UNL d   1       0.506   0.663  -2.058  0.00  0.00     0.395 HD
ENDBRANCH   1   7
TORSDOF 1
ENDMDL
