MODEL 1
REMARK minimizedAffinity 3.57272744
REMARK minimizedRMSD -1
REMARK  0 active torsions:
REMARK  status: ('A' for Active; 'I' for Inactive)
ROOT
ATOM      1  C2' OXE d   1      -0.104   4.201   2.972  0.00  0.00     0.078 C 
ATOM      2  C1' OXE d   1       0.762   5.998   4.947  0.00  0.00     0.078 C 
ATOM      3  C1  OXE d   1      -0.679   5.554   4.982  0.00  0.00    -0.078 A 
ATOM      4  C2  OXE d   1      -1.106   4.711   3.985  0.00  0.00    -0.078 A 
ATOM      5  C3  OXE d   1      -2.412   4.229   4.002  0.00  0.00     0.003 A 
ATOM      6  C4  OXE d   1      -3.335   4.714   4.936  0.00  0.00    -0.002 A 
ATOM      7  C5  OXE d   1      -2.931   5.604   5.937  0.00  0.00    -0.002 A 
ATOM      8  C6  OXE d   1      -1.599   6.000   6.000  0.00  0.00     0.003 A 
ENDROOT
TORSDOF 0
ENDMDL
