MODEL 1
REMARK minimizedAffinity 2.96982288
REMARK minimizedRMSD -1
REMARK  0 active torsions:
REMARK  status: ('A' for Active; 'I' for Inactive)
ROOT
ATOM      1  C2' OXE d   1      -2.413   5.591   5.975  0.00  0.00     0.078 C 
ATOM      2  C1' OXE d   1      -2.192   4.585   3.364  0.00  0.00     0.078 C 
ATOM      3  C1  OXE d   1      -0.932   5.057   4.045  0.00  0.00    -0.078 A 
ATOM      4  C2  OXE d   1      -1.056   5.591   5.305  0.00  0.00    -0.078 A 
ATOM      5  C3  OXE d   1       0.082   5.990   6.000  0.00  0.00     0.003 A 
ATOM      6  C4  OXE d   1       1.332   5.996   5.369  0.00  0.00    -0.002 A 
ATOM      7  C5  OXE d   1       1.474   5.494   4.071  0.00  0.00    -0.002 A 
ATOM      8  C6  OXE d   1       0.362   4.982   3.413  0.00  0.00     0.003 A 
ENDROOT
TORSDOF 0
ENDMDL
