MODEL 1
REMARK minimizedAffinity -3.95208883
REMARK minimizedRMSD -1
REMARK  0 active torsions:
REMARK  status: ('A' for Active; 'I' for Inactive)
ROOT
ATOM      1  C2' OXE d   1      -3.752   3.275   6.000  0.00  0.00     0.078 C 
ATOM      2  C1' OXE d   1      -4.161   5.832   4.915  0.00  0.00     0.078 C 
ATOM      3  C1  OXE d   1      -2.758   5.277   4.899  0.00  0.00    -0.078 A 
ATOM      4  C2  OXE d   1      -2.559   4.045   5.474  0.00  0.00    -0.078 A 
ATOM      5  C3  OXE d   1      -1.295   3.463   5.437  0.00  0.00     0.003 A 
ATOM      6  C4  OXE d   1      -0.196   4.186   4.958  0.00  0.00    -0.002 A 
ATOM      7  C5  OXE d   1      -0.370   5.459   4.404  0.00  0.00    -0.002 A 
ATOM      8  C6  OXE d   1      -1.648   6.000   4.328  0.00  0.00     0.003 A 
ENDROOT
TORSDOF 0
ENDMDL
