MODEL 1
REMARK minimizedAffinity 4.02728796
REMARK minimizedRMSD -1
REMARK  0 active torsions:
REMARK  status: ('A' for Active; 'I' for Inactive)
ROOT
ATOM      1  C2' OXE d   1       4.420  -3.238   0.763  0.00  0.00     0.078 C 
ATOM      2  C1' OXE d   1       3.812  -0.560   0.181  0.00  0.00     0.078 C 
ATOM      3  C1  OXE d   1       2.692  -1.446   0.666  0.00  0.00    -0.078 A 
ATOM      4  C2  OXE d   1       2.989  -2.767   0.903  0.00  0.00    -0.078 A 
ATOM      5  C3  OXE d   1       2.005  -3.615   1.404  0.00  0.00     0.003 A 
ATOM      6  C4  OXE d   1       0.681  -3.174   1.521  0.00  0.00    -0.002 A 
ATOM      7  C5  OXE d   1       0.350  -1.843   1.246  0.00  0.00    -0.002 A 
ATOM      8  C6  OXE d   1       1.349  -0.958   0.859  0.00  0.00     0.003 A 
ENDROOT
TORSDOF 0
ENDMDL
