MODEL 1
REMARK minimizedAffinity 1.92026281
REMARK minimizedRMSD -1
REMARK  0 active torsions:
REMARK  status: ('A' for Active; 'I' for Inactive)
ROOT
ATOM      1  C2' OXE d   1       1.256   5.570   4.928  0.00  0.00     0.078 C 
ATOM      2  C1' OXE d   1      -0.053   4.575   2.652  0.00  0.00     0.078 C 
ATOM      3  C1  OXE d   1      -0.905   5.054   3.801  0.00  0.00    -0.078 A 
ATOM      4  C2  OXE d   1      -0.256   5.495   4.929  0.00  0.00    -0.078 A 
ATOM      5  C3  OXE d   1      -0.993   5.999   5.996  0.00  0.00     0.003 A 
ATOM      6  C4  OXE d   1      -2.391   5.918   5.993  0.00  0.00    -0.002 A 
ATOM      7  C5  OXE d   1      -3.071   5.434   4.870  0.00  0.00    -0.002 A 
ATOM      8  C6  OXE d   1      -2.346   5.039   3.752  0.00  0.00     0.003 A 
ENDROOT
TORSDOF 0
ENDMDL
