MODEL 1
REMARK minimizedAffinity -1.21539903
REMARK minimizedRMSD -1
REMARK  0 active torsions:
REMARK  status: ('A' for Active; 'I' for Inactive)
ROOT
ATOM      1  C2' OXE d   1      -2.644   2.479   6.000  0.00  0.00     0.078 C 
ATOM      2  C1' OXE d   1      -3.794   3.893   3.865  0.00  0.00     0.078 C 
ATOM      3  C1  OXE d   1      -2.482   4.393   4.414  0.00  0.00    -0.078 A 
ATOM      4  C2  OXE d   1      -1.949   3.723   5.489  0.00  0.00    -0.078 A 
ATOM      5  C3  OXE d   1      -0.714   4.110   6.000  0.00  0.00     0.003 A 
ATOM      6  C4  OXE d   1      -0.083   5.268   5.528  0.00  0.00    -0.002 A 
ATOM      7  C5  OXE d   1      -0.628   5.988   4.460  0.00  0.00    -0.002 A 
ATOM      8  C6  OXE d   1      -1.803   5.541   3.865  0.00  0.00     0.003 A 
ENDROOT
TORSDOF 0
ENDMDL
