MODEL 1
REMARK minimizedAffinity -0.0201266967
REMARK minimizedRMSD -1
REMARK  0 active torsions:
REMARK  status: ('A' for Active; 'I' for Inactive)
ROOT
ATOM      1  C2' OXE d   1       1.985  -3.134   0.859  0.00  0.00     0.078 C 
ATOM      2  C1' OXE d   1       3.912  -1.180   1.451  0.00  0.00     0.078 C 
ATOM      3  C1  OXE d   1       4.319  -2.627   1.568  0.00  0.00    -0.078 A 
ATOM      4  C2  OXE d   1       3.356  -3.577   1.322  0.00  0.00    -0.078 A 
ATOM      5  C3  OXE d   1       3.693  -4.927   1.363  0.00  0.00     0.003 A 
ATOM      6  C4  OXE d   1       4.960  -5.328   1.802  0.00  0.00    -0.002 A 
ATOM      7  C5  OXE d   1       5.944  -4.377   2.096  0.00  0.00    -0.002 A 
ATOM      8  C6  OXE d   1       5.653  -3.026   1.944  0.00  0.00     0.003 A 
ENDROOT
TORSDOF 0
ENDMDL
