MODEL 1
REMARK minimizedAffinity 5.25559092
REMARK minimizedRMSD -1
REMARK  0 active torsions:
REMARK  status: ('A' for Active; 'I' for Inactive)
ROOT
ATOM      1  C2' OXE d   1       1.997   5.620   4.988  0.00  0.00     0.078 C 
ATOM      2  C1' OXE d   1       0.782   4.332   2.810  0.00  0.00     0.078 C 
ATOM      3  C1  OXE d   1      -0.113   4.859   3.904  0.00  0.00    -0.078 A 
ATOM      4  C2  OXE d   1       0.494   5.447   4.988  0.00  0.00    -0.078 A 
ATOM      5  C3  OXE d   1      -0.288   5.999   5.999  0.00  0.00     0.003 A 
ATOM      6  C4  OXE d   1      -1.677   5.825   5.996  0.00  0.00    -0.002 A 
ATOM      7  C5  OXE d   1      -2.312   5.195   4.921  0.00  0.00    -0.002 A 
ATOM      8  C6  OXE d   1      -1.549   4.745   3.848  0.00  0.00     0.003 A 
ENDROOT
TORSDOF 0
ENDMDL
