MODEL 1
REMARK minimizedAffinity 5.01924658
REMARK minimizedRMSD -1
REMARK  0 active torsions:
REMARK  status: ('A' for Active; 'I' for Inactive)
ROOT
ATOM      1  C1  BNZ d   1       4.110   4.671   1.926  0.00  0.00     0.000 A 
ATOM      2  C2  BNZ d   1       5.056   5.326   2.669  0.00  0.00     0.000 A 
ATOM      3  C3  BNZ d   1       5.993   4.629   3.380  0.00  0.00     0.000 A 
ATOM      4  C4  BNZ d   1       5.957   3.281   3.380  0.00  0.00     0.000 A 
ATOM      5  C5  BNZ d   1       5.003   2.606   2.644  0.00  0.00     0.000 A 
ATOM      6  C6  BNZ d   1       4.086   3.311   1.898  0.00  0.00     0.000 A 
ENDROOT
TORSDOF 0
ENDMDL
