MODEL 1
REMARK minimizedAffinity 2.70434213
REMARK minimizedRMSD -1
REMARK  0 active torsions:
REMARK  status: ('A' for Active; 'I' for Inactive)
ROOT
ATOM      1  C1  BNZ d   1      -1.635  -4.083   0.770  0.00  0.00     0.000 A 
ATOM      2  C2  BNZ d   1      -2.333  -4.712  -0.227  0.00  0.00     0.000 A 
ATOM      3  C3  BNZ d   1      -2.942  -3.993  -1.216  0.00  0.00     0.000 A 
ATOM      4  C4  BNZ d   1      -2.888  -2.646  -1.187  0.00  0.00     0.000 A 
ATOM      5  C5  BNZ d   1      -2.196  -1.996  -0.184  0.00  0.00     0.000 A 
ATOM      6  C6  BNZ d   1      -1.551  -2.725   0.789  0.00  0.00     0.000 A 
ENDROOT
TORSDOF 0
ENDMDL
