MODEL 1
REMARK minimizedAffinity 6.27888584
REMARK minimizedRMSD -1
REMARK  0 active torsions:
REMARK  status: ('A' for Active; 'I' for Inactive)
ROOT
ATOM      1  C1  BNZ d   1       5.482   6.000  -2.203  0.00  0.00     0.000 A 
ATOM      2  C2  BNZ d   1       5.999   4.884  -2.805  0.00  0.00     0.000 A 
ATOM      3  C3  BNZ d   1       5.999   3.678  -2.161  0.00  0.00     0.000 A 
ATOM      4  C4  BNZ d   1       5.519   3.598  -0.903  0.00  0.00     0.000 A 
ATOM      5  C5  BNZ d   1       5.002   4.716  -0.280  0.00  0.00     0.000 A 
ATOM      6  C6  BNZ d   1       4.969   5.920  -0.945  0.00  0.00     0.000 A 
ENDROOT
TORSDOF 0
ENDMDL
