MODEL 1
REMARK minimizedAffinity -2.48302603
REMARK minimizedRMSD -1
REMARK  0 active torsions:
REMARK  status: ('A' for Active; 'I' for Inactive)
ROOT
ATOM      1  C1  BNZ d   1       1.048   1.192   0.952  0.00  0.00     0.000 A 
ATOM      2  C2  BNZ d   1       1.061   0.182   0.028  0.00  0.00     0.000 A 
ATOM      3  C3  BNZ d   1      -0.073  -0.155  -0.658  0.00  0.00     0.000 A 
ATOM      4  C4  BNZ d   1      -1.226   0.491  -0.389  0.00  0.00     0.000 A 
ATOM      5  C5  BNZ d   1      -1.258   1.506   0.546  0.00  0.00     0.000 A 
ATOM      6  C6  BNZ d   1      -0.106   1.868   1.206  0.00  0.00     0.000 A 
ENDROOT
TORSDOF 0
ENDMDL
