MODEL 1
REMARK minimizedAffinity -2.18996334
REMARK minimizedRMSD -1
REMARK  0 active torsions:
REMARK  status: ('A' for Active; 'I' for Inactive)
ROOT
ATOM      1  C1  BNZ d   1      -5.860   3.001  -1.704  0.00  0.00     0.000 A 
ATOM      2  C2  BNZ d   1      -6.000   4.189  -1.037  0.00  0.00     0.000 A 
ATOM      3  C3  BNZ d   1      -5.903   5.380  -1.701  0.00  0.00     0.000 A 
ATOM      4  C4  BNZ d   1      -5.628   5.383  -3.021  0.00  0.00     0.000 A 
ATOM      5  C5  BNZ d   1      -5.475   4.194  -3.706  0.00  0.00     0.000 A 
ATOM      6  C6  BNZ d   1      -5.612   2.996  -3.042  0.00  0.00     0.000 A 
ENDROOT
TORSDOF 0
ENDMDL
