MODEL 1
REMARK minimizedAffinity -2.66937399
REMARK minimizedRMSD -1
REMARK  0 active torsions:
REMARK  status: ('A' for Active; 'I' for Inactive)
ROOT
ATOM      1  C1  BNZ d   1      -5.959   3.623  -2.844  0.00  0.00     0.000 A 
ATOM      2  C2  BNZ d   1      -5.892   4.816  -3.514  0.00  0.00     0.000 A 
ATOM      3  C3  BNZ d   1      -5.854   6.000  -2.832  0.00  0.00     0.000 A 
ATOM      4  C4  BNZ d   1      -5.923   5.992  -1.485  0.00  0.00     0.000 A 
ATOM      5  C5  BNZ d   1      -6.000   4.798  -0.796  0.00  0.00     0.000 A 
ATOM      6  C6  BNZ d   1      -5.999   3.607  -1.484  0.00  0.00     0.000 A 
ENDROOT
TORSDOF 0
ENDMDL
