MODEL 1
REMARK minimizedAffinity -0.117442459
REMARK minimizedRMSD -1
REMARK  0 active torsions:
REMARK  status: ('A' for Active; 'I' for Inactive)
ROOT
ATOM      1  C1  BNZ d   1       3.345   4.697  -5.998  0.00  0.00     0.000 A 
ATOM      2  C2  BNZ d   1       3.700   3.375  -6.000  0.00  0.00     0.000 A 
ATOM      3  C3  BNZ d   1       5.015   3.002  -5.976  0.00  0.00     0.000 A 
ATOM      4  C4  BNZ d   1       5.973   3.952  -5.992  0.00  0.00     0.000 A 
ATOM      5  C5  BNZ d   1       5.632   5.289  -6.000  0.00  0.00     0.000 A 
ATOM      6  C6  BNZ d   1       4.307   5.661  -5.984  0.00  0.00     0.000 A 
ENDROOT
TORSDOF 0
ENDMDL
