MODEL 1
REMARK minimizedAffinity -0.493646771
REMARK minimizedRMSD -1
REMARK  0 active torsions:
REMARK  status: ('A' for Active; 'I' for Inactive)
ROOT
ATOM      1  C1  BNZ d   1       2.551   1.604   1.140  0.00  0.00     0.000 A 
ATOM      2  C2  BNZ d   1       2.119   2.705   1.829  0.00  0.00     0.000 A 
ATOM      3  C3  BNZ d   1       0.793   2.876   2.115  0.00  0.00     0.000 A 
ATOM      4  C4  BNZ d   1      -0.102   1.967   1.678  0.00  0.00     0.000 A 
ATOM      5  C5  BNZ d   1       0.317   0.856   0.974  0.00  0.00     0.000 A 
ATOM      6  C6  BNZ d   1       1.657   0.667   0.722  0.00  0.00     0.000 A 
ENDROOT
TORSDOF 0
ENDMDL
