MODEL 1
REMARK minimizedAffinity 1.35710275
REMARK minimizedRMSD -1
REMARK  0 active torsions:
REMARK  status: ('A' for Active; 'I' for Inactive)
ROOT
ATOM      1  C1  BNZ d   1      -1.710  -5.141  -3.236  0.00  0.00     0.000 A 
ATOM      2  C2  BNZ d   1      -2.685  -5.952  -2.720  0.00  0.00     0.000 A 
ATOM      3  C3  BNZ d   1      -3.739  -5.426  -2.027  0.00  0.00     0.000 A 
ATOM      4  C4  BNZ d   1      -3.796  -4.095  -1.817  0.00  0.00     0.000 A 
ATOM      5  C5  BNZ d   1      -2.816  -3.265  -2.323  0.00  0.00     0.000 A 
ATOM      6  C6  BNZ d   1      -1.777  -3.794  -3.053  0.00  0.00     0.000 A 
ENDROOT
TORSDOF 0
ENDMDL
