MODEL 1
REMARK minimizedAffinity 2.85709119
REMARK minimizedRMSD -1
REMARK  0 active torsions:
REMARK  status: ('A' for Active; 'I' for Inactive)
ROOT
ATOM      1  C1  BNZ d   1       4.889   5.975   0.704  0.00  0.00     0.000 A 
ATOM      2  C2  BNZ d   1       5.473   5.987  -0.535  0.00  0.00     0.000 A 
ATOM      3  C3  BNZ d   1       5.998   4.844  -1.072  0.00  0.00     0.000 A 
ATOM      4  C4  BNZ d   1       5.974   3.703  -0.354  0.00  0.00     0.000 A 
ATOM      5  C5  BNZ d   1       5.398   3.677   0.900  0.00  0.00     0.000 A 
ATOM      6  C6  BNZ d   1       4.836   4.820   1.421  0.00  0.00     0.000 A 
ENDROOT
TORSDOF 0
ENDMDL
