MODEL 1
REMARK minimizedAffinity -1.4288615
REMARK minimizedRMSD -1
REMARK  0 active torsions:
REMARK  status: ('A' for Active; 'I' for Inactive)
ROOT
ATOM      1  C1  BNZ d   1      -3.521  -5.220  -2.161  0.00  0.00     0.000 A 
ATOM      2  C2  BNZ d   1      -2.670  -5.998  -2.900  0.00  0.00     0.000 A 
ATOM      3  C3  BNZ d   1      -1.602  -5.445  -3.550  0.00  0.00     0.000 A 
ATOM      4  C4  BNZ d   1      -1.410  -4.112  -3.493  0.00  0.00     0.000 A 
ATOM      5  C5  BNZ d   1      -2.264  -3.313  -2.760  0.00  0.00     0.000 A 
ATOM      6  C6  BNZ d   1      -3.315  -3.878  -2.075  0.00  0.00     0.000 A 
ENDROOT
TORSDOF 0
ENDMDL
