MODEL 1
REMARK minimizedAffinity -2.89528298
REMARK minimizedRMSD -1
REMARK  0 active torsions:
REMARK  status: ('A' for Active; 'I' for Inactive)
ROOT
ATOM      1  C1  BNZ d   1      -6.000   3.158  -2.910  0.00  0.00     0.000 A 
ATOM      2  C2  BNZ d   1      -5.905   2.039  -3.694  0.00  0.00     0.000 A 
ATOM      3  C3  BNZ d   1      -5.797   2.143  -5.053  0.00  0.00     0.000 A 
ATOM      4  C4  BNZ d   1      -5.824   3.362  -5.629  0.00  0.00     0.000 A 
ATOM      5  C5  BNZ d   1      -5.928   4.500  -4.853  0.00  0.00     0.000 A 
ATOM      6  C6  BNZ d   1      -5.998   4.393  -3.483  0.00  0.00     0.000 A 
ENDROOT
TORSDOF 0
ENDMDL
