MODEL 1
REMARK minimizedAffinity 0.348701388
REMARK minimizedRMSD -1
REMARK  0 active torsions:
REMARK  status: ('A' for Active; 'I' for Inactive)
ROOT
ATOM      1  C1  BNZ d   1      -2.251  -3.684   0.651  0.00  0.00     0.000 A 
ATOM      2  C2  BNZ d   1      -2.985  -2.560   0.383  0.00  0.00     0.000 A 
ATOM      3  C3  BNZ d   1      -3.016  -1.517   1.265  0.00  0.00     0.000 A 
ATOM      4  C4  BNZ d   1      -2.345  -1.615   2.431  0.00  0.00     0.000 A 
ATOM      5  C5  BNZ d   1      -1.608  -2.746   2.721  0.00  0.00     0.000 A 
ATOM      6  C6  BNZ d   1      -1.548  -3.778   1.813  0.00  0.00     0.000 A 
ENDROOT
TORSDOF 0
ENDMDL
