MODEL 1
REMARK minimizedAffinity 0.921690345
REMARK minimizedRMSD -1
REMARK  0 active torsions:
REMARK  status: ('A' for Active; 'I' for Inactive)
ROOT
ATOM      1  C1  BNZ d   1       0.026   1.310   1.112  0.00  0.00     0.000 A 
ATOM      2  C2  BNZ d   1       0.686   1.689   2.251  0.00  0.00     0.000 A 
ATOM      3  C3  BNZ d   1       0.012   2.265   3.291  0.00  0.00     0.000 A 
ATOM      4  C4  BNZ d   1      -1.311   2.498   3.176  0.00  0.00     0.000 A 
ATOM      5  C5  BNZ d   1      -1.989   2.131   2.031  0.00  0.00     0.000 A 
ATOM      6  C6  BNZ d   1      -1.314   1.515   1.001  0.00  0.00     0.000 A 
ENDROOT
TORSDOF 0
ENDMDL
