MODEL 1
REMARK minimizedAffinity 5.88296604
REMARK minimizedRMSD -1
REMARK  0 active torsions:
REMARK  status: ('A' for Active; 'I' for Inactive)
ROOT
ATOM      1  C1  BNZ d   1      -0.261   3.635  -5.924  0.00  0.00     0.000 A 
ATOM      2  C2  BNZ d   1      -1.629   3.593  -5.983  0.00  0.00     0.000 A 
ATOM      3  C3  BNZ d   1      -2.366   4.744  -5.975  0.00  0.00     0.000 A 
ATOM      4  C4  BNZ d   1      -1.737   5.933  -5.869  0.00  0.00     0.000 A 
ATOM      5  C5  BNZ d   1      -0.360   5.992  -5.800  0.00  0.00     0.000 A 
ATOM      6  C6  BNZ d   1       0.381   4.833  -5.847  0.00  0.00     0.000 A 
ENDROOT
TORSDOF 0
ENDMDL
