MODEL 1
REMARK minimizedAffinity 1.21670282
REMARK minimizedRMSD -1
REMARK  0 active torsions:
REMARK  status: ('A' for Active; 'I' for Inactive)
ROOT
ATOM      1  C1  BNZ d   1       4.544   2.417  -5.919  0.00  0.00     0.000 A 
ATOM      2  C2  BNZ d   1       3.478   3.273  -6.000  0.00  0.00     0.000 A 
ATOM      3  C3  BNZ d   1       3.667   4.627  -6.000  0.00  0.00     0.000 A 
ATOM      4  C4  BNZ d   1       4.916   5.123  -5.879  0.00  0.00     0.000 A 
ATOM      5  C5  BNZ d   1       5.999   4.272  -5.788  0.00  0.00     0.000 A 
ATOM      6  C6  BNZ d   1       5.809   2.910  -5.827  0.00  0.00     0.000 A 
ENDROOT
TORSDOF 0
ENDMDL
