MODEL 1
REMARK minimizedAffinity 17.6583672
REMARK minimizedRMSD -1
REMARK  0 active torsions:
REMARK  status: ('A' for Active; 'I' for Inactive)
ROOT
ATOM      1  C1  DEN d   1      -1.796   4.389  -4.178  0.00  0.00     0.130 A 
ATOM      2  C2  DEN d   1      -2.782   3.376  -3.810  0.00  0.00    -0.031 A 
ATOM      3  C3  DEN d   1      -2.274   2.062  -4.254  0.00  0.00     0.027 A 
ATOM      4  C4  DEN d   1      -0.067   1.501  -5.465  0.00  0.00     0.027 A 
ATOM      5  C5  DEN d   1       1.086   2.031  -6.000  0.00  0.00    -0.003 A 
ATOM      6  C6  DEN d   1       1.342   3.376  -5.995  0.00  0.00     0.001 A 
ATOM      7  C7  DEN d   1       0.453   4.234  -5.404  0.00  0.00     0.017 A 
ATOM      8  C8  DEN d   1      -0.716   3.708  -4.870  0.00  0.00    -0.094 A 
ATOM      9  C9  DEN d   1      -0.951   2.344  -4.874  0.00  0.00    -0.072 A 
ENDROOT
TORSDOF 0
ENDMDL
