MODEL 1
REMARK minimizedAffinity 16.927
REMARK minimizedRMSD -1
REMARK  0 active torsions:
REMARK  status: ('A' for Active; 'I' for Inactive)
ROOT
ATOM      1  C1  DEN d   1       4.103   1.584  -1.947  0.00  0.00     0.130 A 
ATOM      2  C2  DEN d   1       5.110   1.602  -3.004  0.00  0.00    -0.031 A 
ATOM      3  C3  DEN d   1       6.000   2.756  -2.768  0.00  0.00     0.027 A 
ATOM      4  C4  DEN d   1       5.918   4.507  -0.875  0.00  0.00     0.027 A 
ATOM      5  C5  DEN d   1       5.235   4.912   0.250  0.00  0.00    -0.003 A 
ATOM      6  C6  DEN d   1       4.116   4.262   0.699  0.00  0.00     0.001 A 
ATOM      7  C7  DEN d   1       3.673   3.144   0.045  0.00  0.00     0.017 A 
ATOM      8  C8  DEN d   1       4.352   2.733  -1.095  0.00  0.00    -0.094 A 
ATOM      9  C9  DEN d   1       5.488   3.396  -1.526  0.00  0.00    -0.072 A 
ENDROOT
TORSDOF 0
ENDMDL
