MODEL 1
REMARK minimizedAffinity 6.85675812
REMARK minimizedRMSD -1
REMARK  0 active torsions:
REMARK  status: ('A' for Active; 'I' for Inactive)
ROOT
ATOM      1  C1  DEN d   1      -0.474  -5.422   1.466  0.00  0.00     0.130 A 
ATOM      2  C2  DEN d   1      -0.061  -5.466   0.066  0.00  0.00    -0.031 A 
ATOM      3  C3  DEN d   1      -0.534  -4.230  -0.589  0.00  0.00     0.027 A 
ATOM      4  C4  DEN d   1      -1.855  -2.260   0.425  0.00  0.00     0.027 A 
ATOM      5  C5  DEN d   1      -2.444  -1.776   1.572  0.00  0.00    -0.003 A 
ATOM      6  C6  DEN d   1      -2.447  -2.482   2.746  0.00  0.00     0.001 A 
ATOM      7  C7  DEN d   1      -1.810  -3.693   2.811  0.00  0.00     0.017 A 
ATOM      8  C8  DEN d   1      -1.220  -4.191   1.657  0.00  0.00    -0.094 A 
ATOM      9  C9  DEN d   1      -1.217  -3.457   0.483  0.00  0.00    -0.072 A 
ENDROOT
TORSDOF 0
ENDMDL
