MODEL 1
REMARK minimizedAffinity 18.5795631
REMARK minimizedRMSD -1
REMARK  0 active torsions:
REMARK  status: ('A' for Active; 'I' for Inactive)
ROOT
ATOM      1  C1  DEN d   1      -2.229  -1.255   0.063  0.00  0.00     0.130 A 
ATOM      2  C2  DEN d   1      -1.531  -1.356  -1.216  0.00  0.00    -0.031 A 
ATOM      3  C3  DEN d   1      -0.614  -2.511  -1.146  0.00  0.00     0.027 A 
ATOM      4  C4  DEN d   1      -0.212  -4.148   0.806  0.00  0.00     0.027 A 
ATOM      5  C5  DEN d   1      -0.564  -4.458   2.101  0.00  0.00    -0.003 A 
ATOM      6  C6  DEN d   1      -1.463  -3.709   2.813  0.00  0.00     0.001 A 
ATOM      7  C7  DEN d   1      -2.075  -2.637   2.219  0.00  0.00     0.017 A 
ATOM      8  C8  DEN d   1      -1.720  -2.313   0.916  0.00  0.00    -0.094 A 
ATOM      9  C9  DEN d   1      -0.818  -3.090   0.209  0.00  0.00    -0.072 A 
ENDROOT
TORSDOF 0
ENDMDL
