MODEL 1
REMARK minimizedAffinity 15.9722939
REMARK minimizedRMSD -1
REMARK  0 active torsions:
REMARK  status: ('A' for Active; 'I' for Inactive)
ROOT
ATOM      1  C1  DEN d   1       0.675   3.641  -3.693  0.00  0.00     0.130 A 
ATOM      2  C2  DEN d   1      -0.220   3.490  -4.838  0.00  0.00    -0.031 A 
ATOM      3  C3  DEN d   1      -0.252   2.060  -5.207  0.00  0.00     0.027 A 
ATOM      4  C4  DEN d   1       0.986   0.076  -4.120  0.00  0.00     0.027 A 
ATOM      5  C5  DEN d   1       1.868  -0.289  -3.127  0.00  0.00    -0.003 A 
ATOM      6  C6  DEN d   1       2.436   0.627  -2.282  0.00  0.00     0.001 A 
ATOM      7  C7  DEN d   1       2.093   1.950  -2.385  0.00  0.00     0.017 A 
ATOM      8  C8  DEN d   1       1.210   2.326  -3.388  0.00  0.00    -0.094 A 
ATOM      9  C9  DEN d   1       0.637   1.383  -4.225  0.00  0.00    -0.072 A 
ENDROOT
TORSDOF 0
ENDMDL
