MODEL 1
REMARK minimizedAffinity 16.5098839
REMARK minimizedRMSD -1
REMARK  0 active torsions:
REMARK  status: ('A' for Active; 'I' for Inactive)
ROOT
ATOM      1  C1  DEN d   1      -2.461   1.838  -3.951  0.00  0.00     0.130 A 
ATOM      2  C2  DEN d   1      -3.432   2.098  -5.009  0.00  0.00    -0.031 A 
ATOM      3  C3  DEN d   1      -2.799   2.992  -6.000  0.00  0.00     0.027 A 
ATOM      4  C4  DEN d   1      -0.420   3.988  -6.000  0.00  0.00     0.027 A 
ATOM      5  C5  DEN d   1       0.766   4.061  -5.303  0.00  0.00    -0.003 A 
ATOM      6  C6  DEN d   1       0.947   3.431  -4.101  0.00  0.00     0.001 A 
ATOM      7  C7  DEN d   1      -0.060   2.662  -3.579  0.00  0.00     0.017 A 
ATOM      8  C8  DEN d   1      -1.261   2.590  -4.272  0.00  0.00    -0.094 A 
ATOM      9  C9  DEN d   1      -1.420   3.225  -5.492  0.00  0.00    -0.072 A 
ENDROOT
TORSDOF 0
ENDMDL
