MODEL 1
REMARK minimizedAffinity 17.1742439
REMARK minimizedRMSD -1
REMARK  0 active torsions:
REMARK  status: ('A' for Active; 'I' for Inactive)
ROOT
ATOM      1  C1  DEN d   1      -0.604  -0.146  -3.384  0.00  0.00     0.130 A 
ATOM      2  C2  DEN d   1      -1.814  -0.800  -2.894  0.00  0.00    -0.031 A 
ATOM      3  C3  DEN d   1      -2.922   0.173  -2.970  0.00  0.00     0.027 A 
ATOM      4  C4  DEN d   1      -2.883   2.615  -3.799  0.00  0.00     0.027 A 
ATOM      5  C5  DEN d   1      -2.082   3.617  -4.301  0.00  0.00    -0.003 A 
ATOM      6  C6  DEN d   1      -0.737   3.447  -4.499  0.00  0.00     0.001 A 
ATOM      7  C7  DEN d   1      -0.160   2.233  -4.236  0.00  0.00     0.017 A 
ATOM      8  C8  DEN d   1      -0.960   1.220  -3.722  0.00  0.00    -0.094 A 
ATOM      9  C9  DEN d   1      -2.319   1.408  -3.541  0.00  0.00    -0.072 A 
ENDROOT
TORSDOF 0
ENDMDL
