MODEL 1
REMARK minimizedAffinity 19.0902233
REMARK minimizedRMSD -1
REMARK  0 active torsions:
REMARK  status: ('A' for Active; 'I' for Inactive)
ROOT
ATOM      1  C1  DEN d   1      -1.286  -2.451  -1.459  0.00  0.00     0.130 A 
ATOM      2  C2  DEN d   1      -1.956  -1.214  -1.067  0.00  0.00    -0.031 A 
ATOM      3  C3  DEN d   1      -2.170  -1.255   0.394  0.00  0.00     0.027 A 
ATOM      4  C4  DEN d   1      -1.528  -3.100   2.078  0.00  0.00     0.027 A 
ATOM      5  C5  DEN d   1      -0.952  -4.343   2.215  0.00  0.00    -0.003 A 
ATOM      6  C6  DEN d   1      -0.481  -5.052   1.141  0.00  0.00     0.001 A 
ATOM      7  C7  DEN d   1      -0.538  -4.503  -0.112  0.00  0.00     0.017 A 
ATOM      8  C8  DEN d   1      -1.124  -3.253  -0.259  0.00  0.00    -0.094 A 
ATOM      9  C9  DEN d   1      -1.583  -2.547   0.840  0.00  0.00    -0.072 A 
ENDROOT
TORSDOF 0
ENDMDL
