MODEL 1
REMARK minimizedAffinity 8.68248653
REMARK minimizedRMSD -1
REMARK  0 active torsions:
REMARK  status: ('A' for Active; 'I' for Inactive)
ROOT
ATOM      1  C1  DEN d   1       1.514  -0.486  -3.480  0.00  0.00     0.130 A 
ATOM      2  C2  DEN d   1       2.917  -0.083  -3.427  0.00  0.00    -0.031 A 
ATOM      3  C3  DEN d   1       2.985   1.368  -3.695  0.00  0.00     0.027 A 
ATOM      4  C4  DEN d   1       1.066   3.021  -4.179  0.00  0.00     0.027 A 
ATOM      5  C5  DEN d   1      -0.297   3.144  -4.338  0.00  0.00    -0.003 A 
ATOM      6  C6  DEN d   1      -1.141   2.068  -4.258  0.00  0.00     0.001 A 
ATOM      7  C7  DEN d   1      -0.635   0.829  -3.966  0.00  0.00     0.017 A 
ATOM      8  C8  DEN d   1       0.738   0.696  -3.810  0.00  0.00    -0.094 A 
ATOM      9  C9  DEN d   1       1.574   1.798  -3.884  0.00  0.00    -0.072 A 
ENDROOT
TORSDOF 0
ENDMDL
