MODEL 1
REMARK minimizedAffinity 14.1706619
REMARK minimizedRMSD -1
REMARK  0 active torsions:
REMARK  status: ('A' for Active; 'I' for Inactive)
ROOT
ATOM      1  C1  DEN d   1      -3.088  -2.019   5.356  0.00  0.00     0.130 A 
ATOM      2  C2  DEN d   1      -1.663  -1.700   5.342  0.00  0.00    -0.031 A 
ATOM      3  C3  DEN d   1      -1.519  -0.245   5.553  0.00  0.00     0.027 A 
ATOM      4  C4  DEN d   1      -3.353   1.533   5.904  0.00  0.00     0.027 A 
ATOM      5  C5  DEN d   1      -4.712   1.744   5.983  0.00  0.00    -0.003 A 
ATOM      6  C6  DEN d   1      -5.619   0.729   5.826  0.00  0.00     0.001 A 
ATOM      7  C7  DEN d   1      -5.176  -0.552   5.627  0.00  0.00     0.017 A 
ATOM      8  C8  DEN d   1      -3.807  -0.771   5.538  0.00  0.00    -0.094 A 
ATOM      9  C9  DEN d   1      -2.907   0.266   5.712  0.00  0.00    -0.072 A 
ENDROOT
TORSDOF 0
ENDMDL
