MODEL 1
REMARK minimizedAffinity 26.7679501
REMARK minimizedRMSD -1
REMARK  0 active torsions:
REMARK  status: ('A' for Active; 'I' for Inactive)
ROOT
ATOM      1  C1  DEN d   1       2.716   2.714   0.727  0.00  0.00     0.130 A 
ATOM      2  C2  DEN d   1       2.407   1.488  -0.003  0.00  0.00    -0.031 A 
ATOM      3  C3  DEN d   1       3.388   1.350  -1.099  0.00  0.00     0.027 A 
ATOM      4  C4  DEN d   1       5.347   2.905  -1.729  0.00  0.00     0.027 A 
ATOM      5  C5  DEN d   1       6.000   4.074  -1.407  0.00  0.00    -0.003 A 
ATOM      6  C6  DEN d   1       5.587   4.883  -0.382  0.00  0.00     0.001 A 
ATOM      7  C7  DEN d   1       4.517   4.510   0.388  0.00  0.00     0.017 A 
ATOM      8  C8  DEN d   1       3.849   3.336   0.065  0.00  0.00    -0.094 A 
ATOM      9  C9  DEN d   1       4.290   2.526  -0.967  0.00  0.00    -0.072 A 
ENDROOT
TORSDOF 0
ENDMDL
