MODEL 1
REMARK minimizedAffinity 22.7730808
REMARK minimizedRMSD -1
REMARK  0 active torsions:
REMARK  status: ('A' for Active; 'I' for Inactive)
ROOT
ATOM      1  C1  DEN d   1       3.692   2.533   1.455  0.00  0.00     0.130 A 
ATOM      2  C2  DEN d   1       3.223   1.747   0.318  0.00  0.00    -0.031 A 
ATOM      3  C3  DEN d   1       3.423   2.550  -0.905  0.00  0.00     0.027 A 
ATOM      4  C4  DEN d   1       4.412   4.919  -1.148  0.00  0.00     0.027 A 
ATOM      5  C5  DEN d   1       4.939   5.991  -0.462  0.00  0.00    -0.003 A 
ATOM      6  C6  DEN d   1       5.055   5.999   0.903  0.00  0.00     0.001 A 
ATOM      7  C7  DEN d   1       4.680   4.896   1.622  0.00  0.00     0.017 A 
ATOM      8  C8  DEN d   1       4.141   3.814   0.939  0.00  0.00    -0.094 A 
ATOM      9  C9  DEN d   1       4.043   3.820  -0.443  0.00  0.00    -0.072 A 
ENDROOT
TORSDOF 0
ENDMDL
