MODEL 1
REMARK minimizedAffinity 17.3607941
REMARK minimizedRMSD -1
REMARK  0 active torsions:
REMARK  status: ('A' for Active; 'I' for Inactive)
ROOT
ATOM      1  C1  DEN d   1      -3.557   4.168   5.968  0.00  0.00     0.130 A 
ATOM      2  C2  DEN d   1      -4.760   4.995   5.985  0.00  0.00    -0.031 A 
ATOM      3  C3  DEN d   1      -5.932   4.097   5.987  0.00  0.00     0.027 A 
ATOM      4  C4  DEN d   1      -6.000   1.518   5.971  0.00  0.00     0.027 A 
ATOM      5  C5  DEN d   1      -5.231   0.375   5.944  0.00  0.00    -0.003 A 
ATOM      6  C6  DEN d   1      -3.864   0.416   5.889  0.00  0.00     0.001 A 
ATOM      7  C7  DEN d   1      -3.219   1.625   5.905  0.00  0.00     0.017 A 
ATOM      8  C8  DEN d   1      -3.987   2.782   5.925  0.00  0.00    -0.094 A 
ATOM      9  C9  DEN d   1      -5.369   2.719   5.993  0.00  0.00    -0.072 A 
ENDROOT
TORSDOF 0
ENDMDL
