MODEL 1
REMARK minimizedAffinity 12.3482714
REMARK minimizedRMSD -1
REMARK  0 active torsions:
REMARK  status: ('A' for Active; 'I' for Inactive)
ROOT
ATOM      1  C1  DEN d   1      -0.313  -5.619   1.958  0.00  0.00     0.130 A 
ATOM      2  C2  DEN d   1      -0.137  -5.827   0.523  0.00  0.00    -0.031 A 
ATOM      3  C3  DEN d   1      -0.727  -4.671  -0.182  0.00  0.00     0.027 A 
ATOM      4  C4  DEN d   1      -1.887  -2.589   0.804  0.00  0.00     0.027 A 
ATOM      5  C5  DEN d   1      -2.284  -1.972   1.969  0.00  0.00    -0.003 A 
ATOM      6  C6  DEN d   1      -2.084  -2.538   3.201  0.00  0.00     0.001 A 
ATOM      7  C7  DEN d   1      -1.430  -3.737   3.298  0.00  0.00     0.017 A 
ATOM      8  C8  DEN d   1      -1.033  -4.369   2.127  0.00  0.00    -0.094 A 
ATOM      9  C9  DEN d   1      -1.233  -3.775   0.893  0.00  0.00    -0.072 A 
ENDROOT
TORSDOF 0
ENDMDL
