MODEL 1
REMARK minimizedAffinity 23.734766
REMARK minimizedRMSD -1
REMARK  0 active torsions:
REMARK  status: ('A' for Active; 'I' for Inactive)
ROOT
ATOM      1  C1  DEN d   1      -3.967   5.998  -4.539  0.00  0.00     0.130 A 
ATOM      2  C2  DEN d   1      -5.175   5.998  -5.359  0.00  0.00    -0.031 A 
ATOM      3  C3  DEN d   1      -5.293   4.673  -6.000  0.00  0.00     0.027 A 
ATOM      4  C4  DEN d   1      -3.731   2.630  -5.800  0.00  0.00     0.027 A 
ATOM      5  C5  DEN d   1      -2.572   2.155  -5.228  0.00  0.00    -0.003 A 
ATOM      6  C6  DEN d   1      -1.784   2.932  -4.421  0.00  0.00     0.001 A 
ATOM      7  C7  DEN d   1      -2.170   4.213  -4.126  0.00  0.00     0.017 A 
ATOM      8  C8  DEN d   1      -3.335   4.701  -4.704  0.00  0.00    -0.094 A 
ATOM      9  C9  DEN d   1      -4.123   3.896  -5.508  0.00  0.00    -0.072 A 
ENDROOT
TORSDOF 0
ENDMDL
