MODEL 1
REMARK minimizedAffinity -2.3944428
REMARK minimizedRMSD -1
REMARK  0 active torsions:
REMARK  status: ('A' for Active; 'I' for Inactive)
ROOT
ATOM      1  C1  BNZ d   1      -2.381  -0.667  -0.014  0.00  0.00     0.000 A 
ATOM      2  C2  BNZ d   1      -1.827   0.585   0.037  0.00  0.00     0.000 A 
ATOM      3  C3  BNZ d   1      -0.474   0.748   0.140  0.00  0.00     0.000 A 
ATOM      4  C4  BNZ d   1       0.320  -0.339   0.232  0.00  0.00     0.000 A 
ATOM      5  C5  BNZ d   1      -0.224  -1.607   0.192  0.00  0.00     0.000 A 
ATOM      6  C6  BNZ d   1      -1.583  -1.768   0.049  0.00  0.00     0.000 A 
ENDROOT
TORSDOF 0
ENDMDL
