MODEL 1
REMARK minimizedAffinity -4.03906393
REMARK minimizedRMSD -1
REMARK  0 active torsions:
REMARK  status: ('A' for Active; 'I' for Inactive)
ROOT
ATOM      1  C1  BNZ d   1      -0.588  -2.081   1.461  0.00  0.00     0.000 A 
ATOM      2  C2  BNZ d   1       0.255  -1.312   0.704  0.00  0.00     0.000 A 
ATOM      3  C3  BNZ d   1      -0.102  -0.914  -0.554  0.00  0.00     0.000 A 
ATOM      4  C4  BNZ d   1      -1.282  -1.317  -1.068  0.00  0.00     0.000 A 
ATOM      5  C5  BNZ d   1      -2.139  -2.100  -0.320  0.00  0.00     0.000 A 
ATOM      6  C6  BNZ d   1      -1.793  -2.467   0.960  0.00  0.00     0.000 A 
ENDROOT
TORSDOF 0
ENDMDL
