MODEL 1
REMARK minimizedAffinity -4.56584167
REMARK minimizedRMSD -1
REMARK  0 active torsions:
REMARK  status: ('A' for Active; 'I' for Inactive)
ROOT
ATOM      1  C1  BNZ d   1      -2.395  -2.018   0.796  0.00  0.00     0.000 A 
ATOM      2  C2  BNZ d   1      -2.061  -0.729   0.477  0.00  0.00     0.000 A 
ATOM      3  C3  BNZ d   1      -0.752  -0.355   0.354  0.00  0.00     0.000 A 
ATOM      4  C4  BNZ d   1       0.221  -1.259   0.590  0.00  0.00     0.000 A 
ATOM      5  C5  BNZ d   1      -0.100  -2.560   0.922  0.00  0.00     0.000 A 
ATOM      6  C6  BNZ d   1      -1.419  -2.943   1.007  0.00  0.00     0.000 A 
ENDROOT
TORSDOF 0
ENDMDL
