MODEL 1
REMARK minimizedAffinity 0.0401358791
REMARK minimizedRMSD -1
REMARK  0 active torsions:
REMARK  status: ('A' for Active; 'I' for Inactive)
ROOT
ATOM      1  C1  BNZ d   1       3.222  -1.532   1.129  0.00  0.00     0.000 A 
ATOM      2  C2  BNZ d   1       4.298  -0.767   1.494  0.00  0.00     0.000 A 
ATOM      3  C3  BNZ d   1       4.199   0.595   1.555  0.00  0.00     0.000 A 
ATOM      4  C4  BNZ d   1       3.039   1.192   1.214  0.00  0.00     0.000 A 
ATOM      5  C5  BNZ d   1       1.948   0.435   0.835  0.00  0.00     0.000 A 
ATOM      6  C6  BNZ d   1       2.040  -0.938   0.811  0.00  0.00     0.000 A 
ENDROOT
TORSDOF 0
ENDMDL
