MODEL 1
REMARK minimizedAffinity -5.06407118
REMARK minimizedRMSD -1
REMARK  0 active torsions:
REMARK  status: ('A' for Active; 'I' for Inactive)
ROOT
ATOM      1  C1  BNZ d   1      -0.295  -2.572   0.605  0.00  0.00     0.000 A 
ATOM      2  C2  BNZ d   1      -1.560  -2.112   0.856  0.00  0.00     0.000 A 
ATOM      3  C3  BNZ d   1      -1.844  -0.776   0.790  0.00  0.00     0.000 A 
ATOM      4  C4  BNZ d   1      -0.856   0.099   0.512  0.00  0.00     0.000 A 
ATOM      5  C5  BNZ d   1       0.426  -0.349   0.266  0.00  0.00     0.000 A 
ATOM      6  C6  BNZ d   1       0.700  -1.697   0.295  0.00  0.00     0.000 A 
ENDROOT
TORSDOF 0
ENDMDL
