MODEL 1
REMARK minimizedAffinity -3.97773218
REMARK minimizedRMSD -1
REMARK  0 active torsions:
REMARK  status: ('A' for Active; 'I' for Inactive)
ROOT
ATOM      1  C1  BNZ d   1       0.512  -0.226   0.106  0.00  0.00     0.000 A 
ATOM      2  C2  BNZ d   1       0.835  -1.552   0.217  0.00  0.00     0.000 A 
ATOM      3  C3  BNZ d   1      -0.002  -2.424   0.855  0.00  0.00     0.000 A 
ATOM      4  C4  BNZ d   1      -1.138  -1.963   1.416  0.00  0.00     0.000 A 
ATOM      5  C5  BNZ d   1      -1.473  -0.627   1.320  0.00  0.00     0.000 A 
ATOM      6  C6  BNZ d   1      -0.647   0.241   0.643  0.00  0.00     0.000 A 
ENDROOT
TORSDOF 0
ENDMDL
