MODEL 1
REMARK minimizedAffinity -4.47642899
REMARK minimizedRMSD -1
REMARK  0 active torsions:
REMARK  status: ('A' for Active; 'I' for Inactive)
ROOT
ATOM      1  C1  BNZ d   1      -0.198  -2.580   1.424  0.00  0.00     0.000 A 
ATOM      2  C2  BNZ d   1      -1.558  -2.745   1.405  0.00  0.00     0.000 A 
ATOM      3  C3  BNZ d   1      -2.357  -1.888   0.701  0.00  0.00     0.000 A 
ATOM      4  C4  BNZ d   1      -1.801  -0.845   0.051  0.00  0.00     0.000 A 
ATOM      5  C5  BNZ d   1      -0.433  -0.660   0.069  0.00  0.00     0.000 A 
ATOM      6  C6  BNZ d   1       0.372  -1.547   0.746  0.00  0.00     0.000 A 
ENDROOT
TORSDOF 0
ENDMDL
