MODEL 1
REMARK minimizedAffinity -3.77098966
REMARK minimizedRMSD -1
REMARK  0 active torsions:
REMARK  status: ('A' for Active; 'I' for Inactive)
ROOT
ATOM      1  C1  BNZ d   1      -1.957  -0.647   2.309  0.00  0.00     0.000 A 
ATOM      2  C2  BNZ d   1      -1.432  -1.911   2.324  0.00  0.00     0.000 A 
ATOM      3  C3  BNZ d   1      -0.683  -2.371   1.277  0.00  0.00     0.000 A 
ATOM      4  C4  BNZ d   1      -0.495  -1.581   0.200  0.00  0.00     0.000 A 
ATOM      5  C5  BNZ d   1      -1.027  -0.307   0.165  0.00  0.00     0.000 A 
ATOM      6  C6  BNZ d   1      -1.747   0.166   1.238  0.00  0.00     0.000 A 
ENDROOT
TORSDOF 0
ENDMDL
