MODEL 1
REMARK minimizedAffinity -3.20256138
REMARK minimizedRMSD -1
REMARK  0 active torsions:
REMARK  status: ('A' for Active; 'I' for Inactive)
ROOT
ATOM      1  C1  BNZ d   1      -0.571  -1.301   1.782  0.00  0.00     0.000 A 
ATOM      2  C2  BNZ d   1       0.409  -2.254   1.696  0.00  0.00     0.000 A 
ATOM      3  C3  BNZ d   1       0.641  -3.115   2.732  0.00  0.00     0.000 A 
ATOM      4  C4  BNZ d   1      -0.078  -2.996   3.866  0.00  0.00     0.000 A 
ATOM      5  C5  BNZ d   1      -1.064  -2.035   3.972  0.00  0.00     0.000 A 
ATOM      6  C6  BNZ d   1      -1.321  -1.195   2.912  0.00  0.00     0.000 A 
ENDROOT
TORSDOF 0
ENDMDL
