MODEL 1
REMARK minimizedAffinity -3.36292362
REMARK minimizedRMSD -1
REMARK  0 active torsions:
REMARK  status: ('A' for Active; 'I' for Inactive)
ROOT
ATOM      1  C1  BNZ d   1      -3.616  -4.876  -5.912  0.00  0.00     0.000 A 
ATOM      2  C2  BNZ d   1      -2.818  -3.767  -6.000  0.00  0.00     0.000 A 
ATOM      3  C3  BNZ d   1      -1.552  -3.773  -5.484  0.00  0.00     0.000 A 
ATOM      4  C4  BNZ d   1      -1.102  -4.872  -4.846  0.00  0.00     0.000 A 
ATOM      5  C5  BNZ d   1      -1.898  -5.995  -4.741  0.00  0.00     0.000 A 
ATOM      6  C6  BNZ d   1      -3.157  -5.999  -5.296  0.00  0.00     0.000 A 
ENDROOT
TORSDOF 0
ENDMDL
