MODEL 1
REMARK minimizedAffinity -0.383564323
REMARK minimizedRMSD -1
REMARK  0 active torsions:
REMARK  status: ('A' for Active; 'I' for Inactive)
ROOT
ATOM      1  C1  BNZ d   1      -3.026   3.686  -3.302  0.00  0.00     0.000 A 
ATOM      2  C2  BNZ d   1      -2.294   4.730  -3.801  0.00  0.00     0.000 A 
ATOM      3  C3  BNZ d   1      -0.932   4.648  -3.896  0.00  0.00     0.000 A 
ATOM      4  C4  BNZ d   1      -0.303   3.540  -3.454  0.00  0.00     0.000 A 
ATOM      5  C5  BNZ d   1      -1.026   2.483  -2.939  0.00  0.00     0.000 A 
ATOM      6  C6  BNZ d   1      -2.399   2.554  -2.882  0.00  0.00     0.000 A 
ENDROOT
TORSDOF 0
ENDMDL
