MODEL 1
REMARK minimizedAffinity -3.72398496
REMARK minimizedRMSD -1
REMARK  0 active torsions:
REMARK  status: ('A' for Active; 'I' for Inactive)
ROOT
ATOM      1  C1  BNZ d   1      -0.362  -0.954   1.791  0.00  0.00     0.000 A 
ATOM      2  C2  BNZ d   1      -1.093  -1.030   2.947  0.00  0.00     0.000 A 
ATOM      3  C3  BNZ d   1      -1.125  -2.184   3.679  0.00  0.00     0.000 A 
ATOM      4  C4  BNZ d   1      -0.461  -3.270   3.235  0.00  0.00     0.000 A 
ATOM      5  C5  BNZ d   1       0.272  -3.212   2.067  0.00  0.00     0.000 A 
ATOM      6  C6  BNZ d   1       0.335  -2.037   1.353  0.00  0.00     0.000 A 
ENDROOT
TORSDOF 0
ENDMDL
