MODEL 1
REMARK minimizedAffinity -1.52814436
REMARK minimizedRMSD -1
REMARK  0 active torsions:
REMARK  status: ('A' for Active; 'I' for Inactive)
ROOT
ATOM      1  C1  BNZ d   1      -3.121  -3.648  -6.000  0.00  0.00     0.000 A 
ATOM      2  C2  BNZ d   1      -1.764  -3.668  -5.816  0.00  0.00     0.000 A 
ATOM      3  C3  BNZ d   1      -1.101  -4.847  -5.621  0.00  0.00     0.000 A 
ATOM      4  C4  BNZ d   1      -1.799  -6.000  -5.570  0.00  0.00     0.000 A 
ATOM      5  C5  BNZ d   1      -3.169  -5.996  -5.744  0.00  0.00     0.000 A 
ATOM      6  C6  BNZ d   1      -3.828  -4.811  -5.979  0.00  0.00     0.000 A 
ENDROOT
TORSDOF 0
ENDMDL
