MODEL 1
REMARK minimizedAffinity 1.13166964
REMARK minimizedRMSD -1
REMARK  0 active torsions:
REMARK  status: ('A' for Active; 'I' for Inactive)
ROOT
ATOM      1  C1  BNZ d   1      -0.675  -2.621   3.077  0.00  0.00     0.000 A 
ATOM      2  C2  BNZ d   1       0.578  -2.786   2.550  0.00  0.00     0.000 A 
ATOM      3  C3  BNZ d   1       1.576  -3.364   3.283  0.00  0.00     0.000 A 
ATOM      4  C4  BNZ d   1       1.331  -3.739   4.556  0.00  0.00     0.000 A 
ATOM      5  C5  BNZ d   1       0.076  -3.571   5.105  0.00  0.00     0.000 A 
ATOM      6  C6  BNZ d   1      -0.937  -3.025   4.350  0.00  0.00     0.000 A 
ENDROOT
TORSDOF 0
ENDMDL
