MODEL 1
REMARK minimizedAffinity 2.22664428
REMARK minimizedRMSD -1
REMARK  0 active torsions:
REMARK  status: ('A' for Active; 'I' for Inactive)
ROOT
ATOM      1  C1  BNZ d   1       1.037  -2.241   0.335  0.00  0.00     0.000 A 
ATOM      2  C2  BNZ d   1       0.503  -1.479  -0.670  0.00  0.00     0.000 A 
ATOM      3  C3  BNZ d   1      -0.456  -0.543  -0.403  0.00  0.00     0.000 A 
ATOM      4  C4  BNZ d   1      -0.909  -0.398   0.859  0.00  0.00     0.000 A 
ATOM      5  C5  BNZ d   1      -0.387  -1.166   1.881  0.00  0.00     0.000 A 
ATOM      6  C6  BNZ d   1       0.606  -2.080   1.616  0.00  0.00     0.000 A 
ENDROOT
TORSDOF 0
ENDMDL
