MODEL 1
REMARK minimizedAffinity -3.09562278
REMARK minimizedRMSD -1
REMARK  0 active torsions:
REMARK  status: ('A' for Active; 'I' for Inactive)
ROOT
ATOM      1  C1  BNZ d   1      -4.321  -2.908  -5.997  0.00  0.00     0.000 A 
ATOM      2  C2  BNZ d   1      -4.750  -4.209  -5.974  0.00  0.00     0.000 A 
ATOM      3  C3  BNZ d   1      -3.875  -5.231  -5.734  0.00  0.00     0.000 A 
ATOM      4  C4  BNZ d   1      -2.566  -4.955  -5.557  0.00  0.00     0.000 A 
ATOM      5  C5  BNZ d   1      -2.116  -3.650  -5.586  0.00  0.00     0.000 A 
ATOM      6  C6  BNZ d   1      -3.007  -2.621  -5.790  0.00  0.00     0.000 A 
ENDROOT
TORSDOF 0
ENDMDL
