MODEL 1
REMARK minimizedAffinity -0.741457403
REMARK minimizedRMSD -1
REMARK  0 active torsions:
REMARK  status: ('A' for Active; 'I' for Inactive)
ROOT
ATOM      1  C1  BNZ d   1       1.390  -3.463   3.361  0.00  0.00     0.000 A 
ATOM      2  C2  BNZ d   1       0.881  -3.158   4.595  0.00  0.00     0.000 A 
ATOM      3  C3  BNZ d   1      -0.277  -2.443   4.718  0.00  0.00     0.000 A 
ATOM      4  C4  BNZ d   1      -0.902  -1.998   3.608  0.00  0.00     0.000 A 
ATOM      5  C5  BNZ d   1      -0.396  -2.289   2.357  0.00  0.00     0.000 A 
ATOM      6  C6  BNZ d   1       0.748  -3.043   2.237  0.00  0.00     0.000 A 
ENDROOT
TORSDOF 0
ENDMDL
