MODEL 1
REMARK minimizedAffinity -4.09729815
REMARK minimizedRMSD -1
REMARK  2 active torsions:
REMARK  status: ('A' for Active; 'I' for Inactive)
REMARK    1  A    between atoms: C2'_3  and  C1'_4 
REMARK    2  A    between atoms: C1'_4  and  C1_5 
ROOT
ATOM      1  C1  I4B d   1       0.081  -0.036   0.030  0.00  0.00    -0.075 A 
ATOM      2  C2  I4B d   1       0.449   1.025   0.818  0.00  0.00     0.003 A 
ATOM      3  C3  I4B d   1       1.638   0.965   1.585  0.00  0.00     0.002 A 
ATOM      4  C4  I4B d   1       2.397  -0.188   1.573  0.00  0.00    -0.004 A 
ATOM      5  C5  I4B d   1       2.034  -1.254   0.756  0.00  0.00     0.002 A 
ATOM      6  C6  I4B d   1       0.875  -1.174  -0.031  0.00  0.00     0.003 A 
ENDROOT
BRANCH   1   7
ATOM      7  C1' I4B d   1      -1.198   0.049  -0.742  0.00  0.00     0.060 C 
BRANCH   7   8
ATOM      8  C2' I4B d   1      -2.227  -0.811  -0.036  0.00  0.00    -0.013 C 
ATOM      9  C4' I4B d   1      -2.556  -0.259   1.326  0.00  0.00     0.013 C 
ATOM     10  C3' I4B d   1      -3.449  -0.876  -0.903  0.00  0.00     0.013 C 
ENDBRANCH   7   8
ENDBRANCH   1   7
TORSDOF 2
ENDMDL
