MODEL 1
REMARK minimizedAffinity 9.06332111
REMARK minimizedRMSD -1
REMARK  2 active torsions:
REMARK  status: ('A' for Active; 'I' for Inactive)
REMARK    1  A    between atoms: C2'_3  and  C1'_4 
REMARK    2  A    between atoms: C1'_4  and  C1_5 
ROOT
ATOM      1  C1  I4B d   1      -0.698   1.025   2.552  0.00  0.00    -0.075 A 
ATOM      2  C2  I4B d   1      -0.751   2.331   2.133  0.00  0.00     0.003 A 
ATOM      3  C3  I4B d   1      -1.795   2.763   1.280  0.00  0.00     0.002 A 
ATOM      4  C4  I4B d   1      -2.729   1.852   0.833  0.00  0.00    -0.004 A 
ATOM      5  C5  I4B d   1      -2.687   0.533   1.277  0.00  0.00     0.002 A 
ATOM      6  C6  I4B d   1      -1.672   0.119   2.151  0.00  0.00     0.003 A 
ENDROOT
BRANCH   1   7
ATOM      7  C1' I4B d   1       0.437   0.594   3.426  0.00  0.00     0.060 C 
BRANCH   7   8
ATOM      8  C2' I4B d   1       1.341  -0.306   2.608  0.00  0.00    -0.013 C 
ATOM      9  C4' I4B d   1       2.746   0.234   2.554  0.00  0.00     0.013 C 
ATOM     10  C3' I4B d   1       1.310  -1.674   3.222  0.00  0.00     0.013 C 
ENDBRANCH   7   8
ENDBRANCH   1   7
TORSDOF 2
ENDMDL
