MODEL 1
REMARK minimizedAffinity 3.43108916
REMARK minimizedRMSD -1
REMARK  2 active torsions:
REMARK  status: ('A' for Active; 'I' for Inactive)
REMARK    1  A    between atoms: C2'_3  and  C1'_4 
REMARK    2  A    between atoms: C1'_4  and  C1_5 
ROOT
ATOM      1  C1  I4B d   1      -1.098  -0.295   2.283  0.00  0.00    -0.075 A 
ATOM      2  C2  I4B d   1      -0.169  -0.307   1.273  0.00  0.00     0.003 A 
ATOM      3  C3  I4B d   1      -0.580  -0.482  -0.071  0.00  0.00     0.002 A 
ATOM      4  C4  I4B d   1      -1.914  -0.691  -0.352  0.00  0.00    -0.004 A 
ATOM      5  C5  I4B d   1      -2.857  -0.656   0.671  0.00  0.00     0.002 A 
ATOM      6  C6  I4B d   1      -2.448  -0.444   1.996  0.00  0.00     0.003 A 
ENDROOT
BRANCH   1   7
ATOM      7  C1' I4B d   1      -0.626  -0.141   3.694  0.00  0.00     0.060 C 
BRANCH   7   8
ATOM      8  C2' I4B d   1       0.082  -1.420   4.092  0.00  0.00    -0.013 C 
ATOM      9  C4' I4B d   1       1.278  -1.133   4.961  0.00  0.00     0.013 C 
ATOM     10  C3' I4B d   1      -0.907  -2.295   4.803  0.00  0.00     0.013 C 
ENDBRANCH   7   8
ENDBRANCH   1   7
TORSDOF 2
ENDMDL
