MODEL 1
REMARK minimizedAffinity 0.346472442
REMARK minimizedRMSD -1
REMARK  2 active torsions:
REMARK  status: ('A' for Active; 'I' for Inactive)
REMARK    1  A    between atoms: C2'_3  and  C1'_4 
REMARK    2  A    between atoms: C1'_4  and  C1_5 
ROOT
ATOM      1  C1  I4B d   1      -0.861  -0.644   3.978  0.00  0.00    -0.075 A 
ATOM      2  C2  I4B d   1      -1.390  -1.803   4.487  0.00  0.00     0.003 A 
ATOM      3  C3  I4B d   1      -2.616  -2.306   3.988  0.00  0.00     0.002 A 
ATOM      4  C4  I4B d   1      -3.300  -1.595   3.023  0.00  0.00    -0.004 A 
ATOM      5  C5  I4B d   1      -2.750  -0.431   2.493  0.00  0.00     0.002 A 
ATOM      6  C6  I4B d   1      -1.517   0.041   2.964  0.00  0.00     0.003 A 
ENDROOT
BRANCH   1   7
ATOM      7  C1' I4B d   1       0.420  -0.124   4.551  0.00  0.00     0.060 C 
BRANCH   7   8
ATOM      8  C2' I4B d   1       1.553  -0.970   4.005  0.00  0.00    -0.013 C 
ATOM      9  C4' I4B d   1       1.499  -2.371   4.553  0.00  0.00     0.013 C 
ATOM     10  C3' I4B d   1       1.452  -0.968   2.509  0.00  0.00     0.013 C 
ENDBRANCH   7   8
ENDBRANCH   1   7
TORSDOF 2
ENDMDL
