MODEL 1
REMARK minimizedAffinity 4.27413797
REMARK minimizedRMSD -1
REMARK  2 active torsions:
REMARK  status: ('A' for Active; 'I' for Inactive)
REMARK    1  A    between atoms: C2'_3  and  C1'_4 
REMARK    2  A    between atoms: C1'_4  and  C1_5 
ROOT
ATOM      1  C1  I4B d   1      -1.021   0.122   1.816  0.00  0.00    -0.075 A 
ATOM      2  C2  I4B d   1      -1.669  -0.250   2.967  0.00  0.00     0.003 A 
ATOM      3  C3  I4B d   1      -0.945  -0.828   4.038  0.00  0.00     0.002 A 
ATOM      4  C4  I4B d   1       0.408  -1.060   3.897  0.00  0.00    -0.004 A 
ATOM      5  C5  I4B d   1       1.067  -0.661   2.738  0.00  0.00     0.002 A 
ATOM      6  C6  I4B d   1       0.351  -0.055   1.696  0.00  0.00     0.003 A 
ENDROOT
BRANCH   1   7
ATOM      7  C1' I4B d   1      -1.822   0.699   0.692  0.00  0.00     0.060 C 
BRANCH   7   8
ATOM      8  C2' I4B d   1      -2.477  -0.448  -0.051  0.00  0.00    -0.013 C 
ATOM      9  C4' I4B d   1      -3.679   0.022  -0.828  0.00  0.00     0.013 C 
ATOM     10  C3' I4B d   1      -1.451  -1.059  -0.957  0.00  0.00     0.013 C 
ENDBRANCH   7   8
ENDBRANCH   1   7
TORSDOF 2
ENDMDL
