MODEL 1
REMARK minimizedAffinity 0.769316792
REMARK minimizedRMSD -1
REMARK  1 active torsions:
REMARK  status: ('A' for Active; 'I' for Inactive)
REMARK    1  A    between atoms: C3_4  and  O_7 
ROOT
ATOM      1  C   UNL d   1      -5.251   3.748  -1.916  0.00  0.00    -0.033 A 
ATOM      2  C1  UNL d   1      -5.749   2.602  -2.537  0.00  0.00     0.039 A 
ATOM      3  C2  UNL d   1      -6.000   2.603  -3.911  0.00  0.00    -0.080 A 
ATOM      4  C3  UNL d   1      -5.748   3.755  -4.651  0.00  0.00     0.150 A 
ATOM      5  C4  UNL d   1      -5.248   4.900  -4.038  0.00  0.00    -0.007 A 
ATOM      6  C5  UNL d   1      -4.999   4.897  -2.667  0.00  0.00     0.039 A 
ENDROOT
BRANCH   4   7
ATOM      7  O   UNL d   1      -5.982   3.806  -5.993  0.00  0.00    -0.526 OA
ATOM      8  H5  UNL d   1      -6.353   2.952  -6.273  0.00  0.00     0.418 HD
ENDBRANCH   4   7
TORSDOF 1
ENDMDL
