MODEL 1
REMARK minimizedAffinity -1.76591384
REMARK minimizedRMSD -1
REMARK  1 active torsions:
REMARK  status: ('A' for Active; 'I' for Inactive)
REMARK    1  A    between atoms: C3_4  and  O_7 
ROOT
ATOM      1  C   UNL d   1      -5.994   4.546  -4.878  0.00  0.00    -0.033 A 
ATOM      2  C1  UNL d   1      -5.002   4.481  -3.898  0.00  0.00     0.039 A 
ATOM      3  C2  UNL d   1      -4.016   3.495  -3.965  0.00  0.00    -0.080 A 
ATOM      4  C3  UNL d   1      -4.033   2.582  -5.016  0.00  0.00     0.150 A 
ATOM      5  C4  UNL d   1      -5.016   2.644  -5.998  0.00  0.00    -0.007 A 
ATOM      6  C5  UNL d   1      -6.000   3.629  -5.930  0.00  0.00     0.039 A 
ENDROOT
BRANCH   4   7
ATOM      7  O   UNL d   1      -3.094   1.599  -5.121  0.00  0.00    -0.526 OA
ATOM      8  H5  UNL d   1      -2.497   1.661  -4.357  0.00  0.00     0.418 HD
ENDBRANCH   4   7
TORSDOF 1
ENDMDL
