MODEL 1
REMARK minimizedAffinity 6.8564682
REMARK minimizedRMSD -1
REMARK  1 active torsions:
REMARK  status: ('A' for Active; 'I' for Inactive)
REMARK    1  A    between atoms: C3_4  and  O_7 
ROOT
ATOM      1  C   UNL d   1       0.268   2.675   2.849  0.00  0.00    -0.033 A 
ATOM      2  C1  UNL d   1      -0.769   2.047   3.542  0.00  0.00     0.039 A 
ATOM      3  C2  UNL d   1      -0.515   0.893   4.286  0.00  0.00    -0.080 A 
ATOM      4  C3  UNL d   1       0.778   0.379   4.330  0.00  0.00     0.150 A 
ATOM      5  C4  UNL d   1       1.816   1.002   3.646  0.00  0.00    -0.007 A 
ATOM      6  C5  UNL d   1       1.560   2.154   2.903  0.00  0.00     0.039 A 
ENDROOT
BRANCH   4   7
ATOM      7  O   UNL d   1       1.073  -0.748   5.039  0.00  0.00    -0.526 OA
ATOM      8  H5  UNL d   1       0.253  -1.085   5.436  0.00  0.00     0.418 HD
ENDBRANCH   4   7
TORSDOF 1
ENDMDL
