MODEL 1
REMARK minimizedAffinity 7.35739946
REMARK minimizedRMSD -1
REMARK  1 active torsions:
REMARK  status: ('A' for Active; 'I' for Inactive)
REMARK    1  A    between atoms: C3_4  and  O_7 
ROOT
ATOM      1  C   UNL d   1       0.784   4.080  -0.583  0.00  0.00    -0.033 A 
ATOM      2  C1  UNL d   1       0.352   3.425   0.572  0.00  0.00     0.039 A 
ATOM      3  C2  UNL d   1      -0.538   4.057   1.443  0.00  0.00    -0.080 A 
ATOM      4  C3  UNL d   1      -0.988   5.341   1.148  0.00  0.00     0.150 A 
ATOM      5  C4  UNL d   1      -0.564   5.997  -0.003  0.00  0.00    -0.007 A 
ATOM      6  C5  UNL d   1       0.325   5.366  -0.871  0.00  0.00     0.039 A 
ENDROOT
BRANCH   4   7
ATOM      7  O   UNL d   1      -1.853   5.999   1.970  0.00  0.00    -0.526 OA
ATOM      8  H5  UNL d   1      -2.036   5.435   2.740  0.00  0.00     0.418 HD
ENDBRANCH   4   7
TORSDOF 1
ENDMDL
