MODEL 1
REMARK minimizedAffinity 7.32069588
REMARK minimizedRMSD -1
REMARK  1 active torsions:
REMARK  status: ('A' for Active; 'I' for Inactive)
REMARK    1  A    between atoms: C3_4  and  O_7 
ROOT
ATOM      1  C   UNL d   1       0.479   4.576  -0.821  0.00  0.00    -0.033 A 
ATOM      2  C1  UNL d   1       1.566   5.055  -0.087  0.00  0.00     0.039 A 
ATOM      3  C2  UNL d   1       1.882   4.485   1.148  0.00  0.00    -0.080 A 
ATOM      4  C3  UNL d   1       1.105   3.438   1.637  0.00  0.00     0.150 A 
ATOM      5  C4  UNL d   1       0.023   2.953   0.909  0.00  0.00    -0.007 A 
ATOM      6  C5  UNL d   1      -0.291   3.524  -0.324  0.00  0.00     0.039 A 
ENDROOT
BRANCH   4   7
ATOM      7  O   UNL d   1       1.371   2.853   2.839  0.00  0.00    -0.526 OA
ATOM      8  H5  UNL d   1       2.128   3.310   3.242  0.00  0.00     0.418 HD
ENDBRANCH   4   7
TORSDOF 1
ENDMDL
