MODEL 1
REMARK minimizedAffinity 3.96018553
REMARK minimizedRMSD -1
REMARK  1 active torsions:
REMARK  status: ('A' for Active; 'I' for Inactive)
REMARK    1  A    between atoms: C3_4  and  O_7 
ROOT
ATOM      1  C   UNL d   1      -0.025   3.136   0.886  0.00  0.00    -0.033 A 
ATOM      2  C1  UNL d   1       0.690   3.145   2.085  0.00  0.00     0.039 A 
ATOM      3  C2  UNL d   1       1.795   3.986   2.234  0.00  0.00    -0.080 A 
ATOM      4  C3  UNL d   1       2.173   4.811   1.179  0.00  0.00     0.150 A 
ATOM      5  C4  UNL d   1       1.463   4.809  -0.017  0.00  0.00    -0.007 A 
ATOM      6  C5  UNL d   1       0.360   3.969  -0.165  0.00  0.00     0.039 A 
ENDROOT
BRANCH   4   7
ATOM      7  O   UNL d   1       3.248   5.644   1.275  0.00  0.00    -0.526 OA
ATOM      8  H5  UNL d   1       3.658   5.517   2.147  0.00  0.00     0.418 HD
ENDBRANCH   4   7
TORSDOF 1
ENDMDL
