MODEL 1
REMARK minimizedAffinity 6.19874763
REMARK minimizedRMSD -1
REMARK  1 active torsions:
REMARK  status: ('A' for Active; 'I' for Inactive)
REMARK    1  A    between atoms: C3_4  and  O_7 
ROOT
ATOM      1  C   UNL d   1      -0.224   5.998  -0.778  0.00  0.00    -0.033 A 
ATOM      2  C1  UNL d   1       1.140   5.702  -0.746  0.00  0.00     0.039 A 
ATOM      3  C2  UNL d   1       1.616   4.679   0.077  0.00  0.00    -0.080 A 
ATOM      4  C3  UNL d   1       0.718   3.959   0.860  0.00  0.00     0.150 A 
ATOM      5  C4  UNL d   1      -0.643   4.245   0.829  0.00  0.00    -0.007 A 
ATOM      6  C5  UNL d   1      -1.116   5.268   0.008  0.00  0.00     0.039 A 
ENDROOT
BRANCH   4   7
ATOM      7  O   UNL d   1       1.135   2.955   1.682  0.00  0.00    -0.526 OA
ATOM      8  H5  UNL d   1       2.103   2.889   1.620  0.00  0.00     0.418 HD
ENDBRANCH   4   7
TORSDOF 1
ENDMDL
