MODEL 1
REMARK minimizedAffinity 7.79423809
REMARK minimizedRMSD -1
REMARK  1 active torsions:
REMARK  status: ('A' for Active; 'I' for Inactive)
REMARK    1  A    between atoms: C3_4  and  O_7 
ROOT
ATOM      1  C   UNL d   1      -0.017  -0.647  -0.964  0.00  0.00    -0.033 A 
ATOM      2  C1  UNL d   1      -1.140   0.129  -0.669  0.00  0.00     0.039 A 
ATOM      3  C2  UNL d   1      -0.992   1.357  -0.021  0.00  0.00    -0.080 A 
ATOM      4  C3  UNL d   1       0.283   1.797   0.326  0.00  0.00     0.150 A 
ATOM      5  C4  UNL d   1       1.406   1.031   0.032  0.00  0.00    -0.007 A 
ATOM      6  C5  UNL d   1       1.256  -0.195  -0.614  0.00  0.00     0.039 A 
ENDROOT
BRANCH   4   7
ATOM      7  O   UNL d   1       0.477   2.986   0.964  0.00  0.00    -0.526 OA
ATOM      8  H5  UNL d   1      -0.390   3.393   1.127  0.00  0.00     0.418 HD
ENDBRANCH   4   7
TORSDOF 1
ENDMDL
