MODEL 1
REMARK minimizedAffinity 5.36753511
REMARK minimizedRMSD -1
REMARK  1 active torsions:
REMARK  status: ('A' for Active; 'I' for Inactive)
REMARK    1  A    between atoms: C3_4  and  O_7 
ROOT
ATOM      1  C   UNL d   1      -0.966   4.666   1.148  0.00  0.00    -0.033 A 
ATOM      2  C1  UNL d   1      -0.038   3.690   0.778  0.00  0.00     0.039 A 
ATOM      3  C2  UNL d   1       0.743   3.866  -0.366  0.00  0.00    -0.080 A 
ATOM      4  C3  UNL d   1       0.588   5.020  -1.129  0.00  0.00     0.150 A 
ATOM      5  C4  UNL d   1      -0.332   5.998  -0.764  0.00  0.00    -0.007 A 
ATOM      6  C5  UNL d   1      -1.111   5.820   0.378  0.00  0.00     0.039 A 
ENDROOT
BRANCH   4   7
ATOM      7  O   UNL d   1       1.324   5.233  -2.256  0.00  0.00    -0.526 OA
ATOM      8  H5  UNL d   1       1.897   4.461  -2.400  0.00  0.00     0.418 HD
ENDBRANCH   4   7
TORSDOF 1
ENDMDL
