MODEL 1
REMARK minimizedAffinity 3.81582236
REMARK minimizedRMSD -1
REMARK  1 active torsions:
REMARK  status: ('A' for Active; 'I' for Inactive)
REMARK    1  A    between atoms: C3_4  and  O_7 
ROOT
ATOM      1  C   UNL d   1      -5.314  -5.990  -5.879  0.00  0.00    -0.033 A 
ATOM      2  C1  UNL d   1      -3.918  -5.983  -5.921  0.00  0.00     0.039 A 
ATOM      3  C2  UNL d   1      -3.182  -5.979  -4.735  0.00  0.00    -0.080 A 
ATOM      4  C3  UNL d   1      -3.853  -5.985  -3.515  0.00  0.00     0.150 A 
ATOM      5  C4  UNL d   1      -5.243  -5.996  -3.465  0.00  0.00    -0.007 A 
ATOM      6  C5  UNL d   1      -5.976  -5.998  -4.651  0.00  0.00     0.039 A 
ENDROOT
BRANCH   4   7
ATOM      7  O   UNL d   1      -3.177  -5.977  -2.331  0.00  0.00    -0.526 OA
ATOM      8  H5  UNL d   1      -2.225  -5.941  -2.520  0.00  0.00     0.418 HD
ENDBRANCH   4   7
TORSDOF 1
ENDMDL
