MODEL 1
REMARK minimizedAffinity -1.27735019
REMARK minimizedRMSD -1
REMARK  1 active torsions:
REMARK  status: ('A' for Active; 'I' for Inactive)
REMARK    1  A    between atoms: C1_2  and  C2_3 
ROOT
ATOM      1  C2  UNL d   1       5.452   3.034  -0.196  0.00  0.00    -0.081 A 
ATOM      2  C3  UNL d   1       5.058   2.494  -1.427  0.00  0.00     0.006 A 
ATOM      3  C4  UNL d   1       4.495   1.218  -1.492  0.00  0.00     0.002 A 
ATOM      4  C5  UNL d   1       4.310   0.463  -0.329  0.00  0.00    -0.080 A 
ATOM      5  C6  UNL d   1       3.679  -0.897  -0.382  0.00  0.00     0.076 C 
ATOM      6  C7  UNL d   1       4.720   0.995   0.898  0.00  0.00     0.002 A 
ATOM      7  C8  UNL d   1       5.283   2.271   0.964  0.00  0.00     0.006 A 
ENDROOT
BRANCH   1   8
ATOM      8  C1  UNL d   1       6.000   4.436  -0.115  0.00  0.00     0.054 C 
ATOM      9  C   UNL d   1       6.000   5.111  -1.479  0.00  0.00     0.018 C 
ENDBRANCH   1   8
TORSDOF 1
ENDMDL
