MODEL 1
REMARK minimizedAffinity 14.3695707
REMARK minimizedRMSD -1
REMARK  1 active torsions:
REMARK  status: ('A' for Active; 'I' for Inactive)
REMARK    1  A    between atoms: C1_2  and  C2_3 
ROOT
ATOM      1  C2  UNL d   1       1.687   0.231  -0.032  0.00  0.00    -0.081 A 
ATOM      2  C3  UNL d   1       0.720   0.589  -0.981  0.00  0.00     0.006 A 
ATOM      3  C4  UNL d   1      -0.424   1.291  -0.596  0.00  0.00     0.002 A 
ATOM      4  C5  UNL d   1      -0.618   1.654   0.741  0.00  0.00    -0.080 A 
ATOM      5  C6  UNL d   1      -1.827   2.434   1.163  0.00  0.00     0.076 C 
ATOM      6  C7  UNL d   1       0.339   1.281   1.692  0.00  0.00     0.002 A 
ATOM      7  C8  UNL d   1       1.483   0.579   1.308  0.00  0.00     0.006 A 
ENDROOT
BRANCH   1   8
ATOM      8  C1  UNL d   1       2.953  -0.469  -0.455  0.00  0.00     0.054 C 
ATOM      9  C   UNL d   1       4.081   0.524  -0.695  0.00  0.00     0.018 C 
ENDBRANCH   1   8
TORSDOF 1
ENDMDL
