MODEL 1
REMARK minimizedAffinity 9.45191765
REMARK minimizedRMSD -1
REMARK  1 active torsions:
REMARK  status: ('A' for Active; 'I' for Inactive)
REMARK    1  A    between atoms: C1_2  and  C2_3 
ROOT
ATOM      1  C2  UNL d   1       2.872   0.342   0.269  0.00  0.00    -0.081 A 
ATOM      2  C3  UNL d   1       1.969   0.369  -0.801  0.00  0.00     0.006 A 
ATOM      3  C4  UNL d   1       0.641   0.751  -0.598  0.00  0.00     0.002 A 
ATOM      4  C5  UNL d   1       0.196   1.120   0.676  0.00  0.00    -0.080 A 
ATOM      5  C6  UNL d   1      -1.220   1.561   0.903  0.00  0.00     0.076 C 
ATOM      6  C7  UNL d   1       1.093   1.076   1.749  0.00  0.00     0.002 A 
ATOM      7  C8  UNL d   1       2.421   0.693   1.546  0.00  0.00     0.006 A 
ENDROOT
BRANCH   1   8
ATOM      8  C1  UNL d   1       4.320  -0.007   0.041  0.00  0.00     0.054 C 
ATOM      9  C   UNL d   1       5.045   1.100  -0.712  0.00  0.00     0.018 C 
ENDBRANCH   1   8
TORSDOF 1
ENDMDL
