MODEL 1
REMARK minimizedAffinity -5.81976557
REMARK minimizedRMSD -1
REMARK  1 active torsions:
REMARK  status: ('A' for Active; 'I' for Inactive)
REMARK    1  A    between atoms: C1_2  and  C2_3 
ROOT
ATOM      1  C2  UNL d   1       0.415  -0.566  -0.170  0.00  0.00    -0.073 A 
ATOM      2  C3  UNL d   1       0.016  -0.017  -1.394  0.00  0.00    -0.002 A 
ATOM      3  C4  UNL d   1      -1.312  -0.114  -1.810  0.00  0.00     0.004 A 
ATOM      4  C5  UNL d   1      -2.255  -0.754  -1.005  0.00  0.00    -0.004 A 
ATOM      5  C6  UNL d   1      -1.878  -1.298   0.227  0.00  0.00    -0.075 A 
ATOM      6  C7  UNL d   1      -2.880  -1.991   1.103  0.00  0.00     0.076 C 
ATOM      7  C8  UNL d   1      -0.542  -1.199   0.637  0.00  0.00     0.001 A 
ENDROOT
BRANCH   1   8
ATOM      8  C1  UNL d   1       1.847  -0.458   0.287  0.00  0.00     0.053 C 
ATOM      9  C   UNL d   1       2.293   0.989   0.428  0.00  0.00     0.018 C 
ENDBRANCH   1   8
TORSDOF 1
ENDMDL
