MODEL 1
REMARK minimizedAffinity -5.60067225
REMARK minimizedRMSD -1
REMARK  1 active torsions:
REMARK  status: ('A' for Active; 'I' for Inactive)
REMARK    1  A    between atoms: C1_2  and  C2_3 
ROOT
ATOM      1  C2  UNL d   1      -1.327  -0.509  -0.317  0.00  0.00    -0.073 A 
ATOM      2  C3  UNL d   1      -2.600  -0.735  -0.852  0.00  0.00    -0.002 A 
ATOM      3  C4  UNL d   1      -3.421  -1.730  -0.320  0.00  0.00     0.004 A 
ATOM      4  C5  UNL d   1      -2.982  -2.504   0.754  0.00  0.00    -0.004 A 
ATOM      5  C6  UNL d   1      -1.718  -2.285   1.310  0.00  0.00    -0.075 A 
ATOM      6  C7  UNL d   1      -1.229  -3.109   2.465  0.00  0.00     0.076 C 
ATOM      7  C8  UNL d   1      -0.897  -1.286   0.769  0.00  0.00     0.001 A 
ENDROOT
BRANCH   1   8
ATOM      8  C1  UNL d   1      -0.439   0.568  -0.883  0.00  0.00     0.053 C 
ATOM      9  C   UNL d   1       0.999   0.431  -0.408  0.00  0.00     0.018 C 
ENDBRANCH   1   8
TORSDOF 1
ENDMDL
