MODEL 1
REMARK minimizedAffinity -5.38359118
REMARK minimizedRMSD -1
REMARK  1 active torsions:
REMARK  status: ('A' for Active; 'I' for Inactive)
REMARK    1  A    between atoms: C1_2  and  C2_3 
ROOT
ATOM      1  C2  UNL d   1      -1.773  -0.772  -0.166  0.00  0.00    -0.073 A 
ATOM      2  C3  UNL d   1      -2.126  -0.280  -1.428  0.00  0.00    -0.002 A 
ATOM      3  C4  UNL d   1      -1.263   0.573  -2.118  0.00  0.00     0.004 A 
ATOM      4  C5  UNL d   1      -0.038   0.935  -1.559  0.00  0.00    -0.004 A 
ATOM      5  C6  UNL d   1       0.338   0.443  -0.305  0.00  0.00    -0.075 A 
ATOM      6  C7  UNL d   1       1.652   0.825   0.311  0.00  0.00     0.076 C 
ATOM      7  C8  UNL d   1      -0.535  -0.410   0.384  0.00  0.00     0.001 A 
ENDROOT
BRANCH   1   8
ATOM      8  C1  UNL d   1      -2.698  -1.698   0.581  0.00  0.00     0.053 C 
ATOM      9  C   UNL d   1      -1.947  -2.843   1.242  0.00  0.00     0.018 C 
ENDBRANCH   1   8
TORSDOF 1
ENDMDL
