MODEL 1
REMARK minimizedAffinity -5.14987707
REMARK minimizedRMSD -1
REMARK  1 active torsions:
REMARK  status: ('A' for Active; 'I' for Inactive)
REMARK    1  A    between atoms: C1_2  and  C2_3 
ROOT
ATOM      1  C2  UNL d   1      -1.688  -0.594  -0.501  0.00  0.00    -0.073 A 
ATOM      2  C3  UNL d   1      -2.891  -1.085   0.017  0.00  0.00    -0.002 A 
ATOM      3  C4  UNL d   1      -2.884  -2.006   1.065  0.00  0.00     0.004 A 
ATOM      4  C5  UNL d   1      -1.675  -2.441   1.610  0.00  0.00    -0.004 A 
ATOM      5  C6  UNL d   1      -0.462  -1.953   1.113  0.00  0.00    -0.075 A 
ATOM      6  C7  UNL d   1       0.846  -2.412   1.686  0.00  0.00     0.076 C 
ATOM      7  C8  UNL d   1      -0.478  -1.030   0.059  0.00  0.00     0.001 A 
ENDROOT
BRANCH   1   8
ATOM      8  C1  UNL d   1      -1.691   0.406  -1.628  0.00  0.00     0.053 C 
ATOM      9  C   UNL d   1      -0.325   0.527  -2.286  0.00  0.00     0.018 C 
ENDBRANCH   1   8
TORSDOF 1
ENDMDL
