MODEL 1
REMARK minimizedAffinity -4.85824966
REMARK minimizedRMSD -1
REMARK  1 active torsions:
REMARK  status: ('A' for Active; 'I' for Inactive)
REMARK    1  A    between atoms: C1_2  and  C2_3 
ROOT
ATOM      1  C2  UNL d   1       0.201  -0.577   0.263  0.00  0.00    -0.073 A 
ATOM      2  C3  UNL d   1       0.437  -1.572   1.217  0.00  0.00    -0.002 A 
ATOM      3  C4  UNL d   1      -0.622  -2.322   1.730  0.00  0.00     0.004 A 
ATOM      4  C5  UNL d   1      -1.925  -2.090   1.290  0.00  0.00    -0.004 A 
ATOM      5  C6  UNL d   1      -2.179  -1.108   0.327  0.00  0.00    -0.075 A 
ATOM      6  C7  UNL d   1      -3.575  -0.844  -0.155  0.00  0.00     0.076 C 
ATOM      7  C8  UNL d   1      -1.111  -0.357  -0.181  0.00  0.00     0.001 A 
ENDROOT
BRANCH   1   8
ATOM      8  C1  UNL d   1       1.342   0.231  -0.299  0.00  0.00     0.053 C 
ATOM      9  C   UNL d   1       1.942   1.168   0.738  0.00  0.00     0.018 C 
ENDBRANCH   1   8
TORSDOF 1
ENDMDL
