MODEL 1
REMARK minimizedAffinity -6.42406225
REMARK minimizedRMSD -1
REMARK  1 active torsions:
REMARK  status: ('A' for Active; 'I' for Inactive)
REMARK    1  A    between atoms: C1_2  and  C2_3 
ROOT
ATOM      1  C2  UNL d   1      -1.878  -0.758   0.137  0.00  0.00    -0.073 A 
ATOM      2  C3  UNL d   1      -2.204  -0.078  -1.042  0.00  0.00    -0.002 A 
ATOM      3  C4  UNL d   1      -1.258   0.731  -1.674  0.00  0.00     0.004 A 
ATOM      4  C5  UNL d   1       0.023   0.862  -1.139  0.00  0.00    -0.004 A 
ATOM      5  C6  UNL d   1       0.372   0.181   0.032  0.00  0.00    -0.075 A 
ATOM      6  C7  UNL d   1       1.745   0.314   0.622  0.00  0.00     0.076 C 
ATOM      7  C8  UNL d   1      -0.584  -0.627   0.662  0.00  0.00     0.001 A 
ENDROOT
BRANCH   1   8
ATOM      8  C1  UNL d   1      -2.893  -1.638   0.819  0.00  0.00     0.053 C 
ATOM      9  C   UNL d   1      -2.237  -2.755   1.615  0.00  0.00     0.018 C 
ENDBRANCH   1   8
TORSDOF 1
ENDMDL
