MODEL 1
REMARK minimizedAffinity -6.04163218
REMARK minimizedRMSD -1
REMARK  1 active torsions:
REMARK  status: ('A' for Active; 'I' for Inactive)
REMARK    1  A    between atoms: C1_2  and  C2_3 
ROOT
ATOM      1  C2  UNL d   1      -1.514  -0.268  -0.601  0.00  0.00    -0.073 A 
ATOM      2  C3  UNL d   1      -2.819  -0.612  -0.970  0.00  0.00    -0.002 A 
ATOM      3  C4  UNL d   1      -3.480  -1.660  -0.327  0.00  0.00     0.004 A 
ATOM      4  C5  UNL d   1      -2.846  -2.368   0.694  0.00  0.00    -0.004 A 
ATOM      5  C6  UNL d   1      -1.546  -2.031   1.085  0.00  0.00    -0.075 A 
ATOM      6  C7  UNL d   1      -0.850  -2.785   2.180  0.00  0.00     0.076 C 
ATOM      7  C8  UNL d   1      -0.888  -0.980   0.433  0.00  0.00     0.001 A 
ENDROOT
BRANCH   1   8
ATOM      8  C1  UNL d   1      -0.799   0.867  -1.287  0.00  0.00     0.053 C 
ATOM      9  C   UNL d   1       0.359   0.377  -2.143  0.00  0.00     0.018 C 
ENDBRANCH   1   8
TORSDOF 1
ENDMDL
