MODEL 1
REMARK minimizedAffinity 5.40609884
REMARK minimizedRMSD -1
REMARK  0 active torsions:
REMARK  status: ('A' for Active; 'I' for Inactive)
ROOT
ATOM      1  C   UNL d   1      -6.000   1.382  -4.714  0.00  0.00     0.077 C 
ATOM      2  C1  UNL d   1      -4.719   1.668  -3.988  0.00  0.00    -0.074 A 
ATOM      3  C2  UNL d   1      -3.985   2.828  -4.256  0.00  0.00    -0.005 A 
ATOM      4  C3  UNL d   1      -2.800   3.085  -3.566  0.00  0.00     0.006 A 
ATOM      5  C4  UNL d   1      -2.338   2.187  -2.604  0.00  0.00    -0.005 A 
ATOM      6  C5  UNL d   1      -3.059   1.022  -2.322  0.00  0.00    -0.074 A 
ATOM      7  C6  UNL d   1      -2.581   0.051  -1.284  0.00  0.00     0.077 C 
ATOM      8  C7  UNL d   1      -4.252   0.774  -3.014  0.00  0.00    -0.001 A 
ENDROOT
TORSDOF 0
ENDMDL
