MODEL 1
REMARK minimizedAffinity 7.73917818
REMARK minimizedRMSD -1
REMARK  0 active torsions:
REMARK  status: ('A' for Active; 'I' for Inactive)
ROOT
ATOM      1  C   UNL d   1       2.514   5.967   5.996  0.00  0.00     0.077 C 
ATOM      2  C1  UNL d   1       3.664   5.419   5.205  0.00  0.00    -0.074 A 
ATOM      3  C2  UNL d   1       4.934   6.000   5.286  0.00  0.00    -0.005 A 
ATOM      4  C3  UNL d   1       5.996   5.473   4.552  0.00  0.00     0.006 A 
ATOM      5  C4  UNL d   1       5.800   4.363   3.730  0.00  0.00    -0.005 A 
ATOM      6  C5  UNL d   1       4.538   3.768   3.636  0.00  0.00    -0.074 A 
ATOM      7  C6  UNL d   1       4.313   2.568   2.765  0.00  0.00     0.077 C 
ATOM      8  C7  UNL d   1       3.477   4.299   4.383  0.00  0.00    -0.001 A 
ENDROOT
TORSDOF 0
ENDMDL
