MODEL 1
REMARK minimizedAffinity 11.9068575
REMARK minimizedRMSD -1
REMARK  0 active torsions:
REMARK  status: ('A' for Active; 'I' for Inactive)
ROOT
ATOM      1  C   UNL d   1      -3.393   3.713  -3.889  0.00  0.00     0.077 C 
ATOM      2  C1  UNL d   1      -2.666   2.568  -3.249  0.00  0.00    -0.074 A 
ATOM      3  C2  UNL d   1      -1.270   2.490  -3.289  0.00  0.00    -0.005 A 
ATOM      4  C3  UNL d   1      -0.607   1.424  -2.681  0.00  0.00     0.006 A 
ATOM      5  C4  UNL d   1      -1.332   0.426  -2.029  0.00  0.00    -0.005 A 
ATOM      6  C5  UNL d   1      -2.728   0.487  -1.978  0.00  0.00    -0.074 A 
ATOM      7  C6  UNL d   1      -3.522  -0.572  -1.272  0.00  0.00     0.077 C 
ATOM      8  C7  UNL d   1      -3.387   1.566  -2.585  0.00  0.00    -0.001 A 
ENDROOT
TORSDOF 0
ENDMDL
