MODEL 1
REMARK minimizedAffinity 12.4322615
REMARK minimizedRMSD -1
REMARK  0 active torsions:
REMARK  status: ('A' for Active; 'I' for Inactive)
ROOT
ATOM      1  C   UNL d   1       5.731   5.908  -5.964  0.00  0.00     0.077 C 
ATOM      2  C1  UNL d   1       4.431   5.199  -5.726  0.00  0.00    -0.074 A 
ATOM      3  C2  UNL d   1       4.406   3.878  -5.266  0.00  0.00    -0.005 A 
ATOM      4  C3  UNL d   1       3.189   3.235  -5.041  0.00  0.00     0.006 A 
ATOM      5  C4  UNL d   1       1.987   3.905  -5.272  0.00  0.00    -0.005 A 
ATOM      6  C5  UNL d   1       1.992   5.226  -5.731  0.00  0.00    -0.074 A 
ATOM      7  C6  UNL d   1       0.709   5.963  -5.975  0.00  0.00     0.077 C 
ATOM      8  C7  UNL d   1       3.219   5.868  -5.948  0.00  0.00    -0.001 A 
ENDROOT
TORSDOF 0
ENDMDL
