MODEL 1
REMARK minimizedAffinity 8.06936836
REMARK minimizedRMSD -1
REMARK  0 active torsions:
REMARK  status: ('A' for Active; 'I' for Inactive)
ROOT
ATOM      1  C   UNL d   1      -1.679  -2.707   1.792  0.00  0.00     0.077 C 
ATOM      2  C1  UNL d   1      -0.206  -2.527   1.576  0.00  0.00    -0.074 A 
ATOM      3  C2  UNL d   1       0.504  -1.531   2.255  0.00  0.00    -0.005 A 
ATOM      4  C3  UNL d   1       1.876  -1.382   2.051  0.00  0.00     0.006 A 
ATOM      5  C4  UNL d   1       2.551  -2.226   1.169  0.00  0.00    -0.005 A 
ATOM      6  C5  UNL d   1       1.859  -3.229   0.483  0.00  0.00    -0.074 A 
ATOM      7  C6  UNL d   1       2.571  -4.151  -0.461  0.00  0.00     0.077 C 
ATOM      8  C7  UNL d   1       0.481  -3.377   0.698  0.00  0.00    -0.001 A 
ENDROOT
TORSDOF 0
ENDMDL
