MODEL 1
REMARK minimizedAffinity 0.538595557
REMARK minimizedRMSD -1
REMARK  0 active torsions:
REMARK  status: ('A' for Active; 'I' for Inactive)
ROOT
ATOM      1  C   UNL d   1      -1.893   2.066  -2.618  0.00  0.00     0.077 C 
ATOM      2  C1  UNL d   1      -2.626   2.658  -3.786  0.00  0.00    -0.074 A 
ATOM      3  C2  UNL d   1      -2.914   1.889  -4.918  0.00  0.00    -0.005 A 
ATOM      4  C3  UNL d   1      -3.604   2.450  -5.992  0.00  0.00     0.006 A 
ATOM      5  C4  UNL d   1      -4.013   3.783  -5.946  0.00  0.00    -0.005 A 
ATOM      6  C5  UNL d   1      -3.734   4.567  -4.822  0.00  0.00    -0.074 A 
ATOM      7  C6  UNL d   1      -4.175   5.999  -4.751  0.00  0.00     0.077 C 
ATOM      8  C7  UNL d   1      -3.046   3.994  -3.743  0.00  0.00    -0.001 A 
ENDROOT
TORSDOF 0
ENDMDL
