MODEL 1
REMARK minimizedAffinity -4.73861837
REMARK minimizedRMSD -1
REMARK  2 active torsions:
REMARK  status: ('A' for Active; 'I' for Inactive)
REMARK    1  A    between atoms: C2'_3  and  C1'_4 
REMARK    2  A    between atoms: C1'_4  and  C1_5 
ROOT
ATOM      1  C1  I4B d   1      -0.307  -1.001  -0.241  0.00  0.00    -0.075 A 
ATOM      2  C2  I4B d   1      -0.986  -2.021   0.378  0.00  0.00     0.003 A 
ATOM      3  C3  I4B d   1      -0.896  -3.343  -0.121  0.00  0.00     0.002 A 
ATOM      4  C4  I4B d   1      -0.163  -3.589  -1.264  0.00  0.00    -0.004 A 
ATOM      5  C5  I4B d   1       0.543  -2.558  -1.877  0.00  0.00     0.002 A 
ATOM      6  C6  I4B d   1       0.481  -1.258  -1.355  0.00  0.00     0.003 A 
ENDROOT
BRANCH   1   7
ATOM      7  C1' I4B d   1      -0.451   0.389   0.294  0.00  0.00     0.060 C 
BRANCH   7   8
ATOM      8  C2' I4B d   1       0.400   1.307  -0.559  0.00  0.00    -0.013 C 
ATOM      9  C4' I4B d   1      -0.354   1.772  -1.777  0.00  0.00     0.013 C 
ATOM     10  C3' I4B d   1       0.824   2.468   0.291  0.00  0.00     0.013 C 
ENDBRANCH   7   8
ENDBRANCH   1   7
TORSDOF 2
ENDMDL
