MODEL 1
REMARK minimizedAffinity -6.18906403
REMARK minimizedRMSD -1
REMARK  2 active torsions:
REMARK  status: ('A' for Active; 'I' for Inactive)
REMARK    1  A    between atoms: C2'_3  and  C1'_4 
REMARK    2  A    between atoms: C1'_4  and  C1_5 
ROOT
ATOM      1  C1  I4B d   1       0.343  -0.781  -0.215  0.00  0.00    -0.075 A 
ATOM      2  C2  I4B d   1       0.541  -1.524  -1.352  0.00  0.00     0.003 A 
ATOM      3  C3  I4B d   1      -0.006  -2.826  -1.456  0.00  0.00     0.002 A 
ATOM      4  C4  I4B d   1      -0.695  -3.362  -0.388  0.00  0.00    -0.004 A 
ATOM      5  C5  I4B d   1      -0.914  -2.598   0.755  0.00  0.00     0.002 A 
ATOM      6  C6  I4B d   1      -0.402  -1.295   0.838  0.00  0.00     0.003 A 
ENDROOT
BRANCH   1   7
ATOM      7  C1' I4B d   1       0.963   0.577  -0.125  0.00  0.00     0.060 C 
BRANCH   7   8
ATOM      8  C2' I4B d   1      -0.137   1.604  -0.304  0.00  0.00    -0.013 C 
ATOM      9  C4' I4B d   1       0.248   2.927   0.305  0.00  0.00     0.013 C 
ATOM     10  C3' I4B d   1      -0.406   1.742  -1.773  0.00  0.00     0.013 C 
ENDBRANCH   7   8
ENDBRANCH   1   7
TORSDOF 2
ENDMDL
