MODEL 1
REMARK minimizedAffinity -6.13028431
REMARK minimizedRMSD -1
REMARK  2 active torsions:
REMARK  status: ('A' for Active; 'I' for Inactive)
REMARK    1  A    between atoms: C2'_3  and  C1'_4 
REMARK    2  A    between atoms: C1'_4  and  C1_5 
ROOT
ATOM      1  C1  I4B d   1       0.283   0.675   0.327  0.00  0.00    -0.075 A 
ATOM      2  C2  I4B d   1      -0.363   1.702  -0.316  0.00  0.00     0.003 A 
ATOM      3  C3  I4B d   1       0.233   2.984  -0.388  0.00  0.00     0.002 A 
ATOM      4  C4  I4B d   1       1.444   3.207   0.235  0.00  0.00    -0.004 A 
ATOM      5  C5  I4B d   1       2.108   2.159   0.866  0.00  0.00     0.002 A 
ATOM      6  C6  I4B d   1       1.530   0.882   0.902  0.00  0.00     0.003 A 
ENDROOT
BRANCH   1   7
ATOM      7  C1' I4B d   1      -0.391  -0.658   0.413  0.00  0.00     0.060 C 
BRANCH   7   8
ATOM      8  C2' I4B d   1       0.627  -1.719   0.048  0.00  0.00    -0.013 C 
ATOM      9  C4' I4B d   1       0.511  -2.919   0.951  0.00  0.00     0.013 C 
ATOM     10  C3' I4B d   1       0.408  -2.098  -1.386  0.00  0.00     0.013 C 
ENDBRANCH   7   8
ENDBRANCH   1   7
TORSDOF 2
ENDMDL
