MODEL 1
REMARK minimizedAffinity -4.68271446
REMARK minimizedRMSD -1
REMARK  2 active torsions:
REMARK  status: ('A' for Active; 'I' for Inactive)
REMARK    1  A    between atoms: C2'_3  and  C1'_4 
REMARK    2  A    between atoms: C1'_4  and  C1_5 
ROOT
ATOM      1  C1  I4B d   1       0.430  -1.667  -0.378  0.00  0.00    -0.075 A 
ATOM      2  C2  I4B d   1       0.280  -1.838  -1.731  0.00  0.00     0.003 A 
ATOM      3  C3  I4B d   1      -0.205  -3.065  -2.246  0.00  0.00     0.002 A 
ATOM      4  C4  I4B d   1      -0.479  -4.104  -1.380  0.00  0.00    -0.004 A 
ATOM      5  C5  I4B d   1      -0.348  -3.922  -0.006  0.00  0.00     0.002 A 
ATOM      6  C6  I4B d   1       0.097  -2.692   0.499  0.00  0.00     0.003 A 
ENDROOT
BRANCH   1   7
ATOM      7  C1' I4B d   1       0.976  -0.370   0.129  0.00  0.00     0.060 C 
BRANCH   7   8
ATOM      8  C2' I4B d   1      -0.074   0.698  -0.097  0.00  0.00    -0.013 C 
ATOM      9  C4' I4B d   1      -1.255   0.505   0.818  0.00  0.00     0.013 C 
ATOM     10  C3' I4B d   1       0.569   2.034   0.125  0.00  0.00     0.013 C 
ENDBRANCH   7   8
ENDBRANCH   1   7
TORSDOF 2
ENDMDL
