MODEL 1
REMARK minimizedAffinity -4.80716372
REMARK minimizedRMSD -1
REMARK  2 active torsions:
REMARK  status: ('A' for Active; 'I' for Inactive)
REMARK    1  A    between atoms: C2'_3  and  C1'_4 
REMARK    2  A    between atoms: C1'_4  and  C1_5 
ROOT
ATOM      1  C1  I4B d   1      -0.063   0.240  -0.242  0.00  0.00    -0.075 A 
ATOM      2  C2  I4B d   1      -0.959   0.071   0.784  0.00  0.00     0.003 A 
ATOM      3  C3  I4B d   1      -1.195  -1.218   1.319  0.00  0.00     0.002 A 
ATOM      4  C4  I4B d   1      -0.555  -2.310   0.768  0.00  0.00    -0.004 A 
ATOM      5  C5  I4B d   1       0.370  -2.134  -0.257  0.00  0.00     0.002 A 
ATOM      6  C6  I4B d   1       0.627  -0.849  -0.757  0.00  0.00     0.003 A 
ENDROOT
BRANCH   1   7
ATOM      7  C1' I4B d   1       0.138   1.611  -0.806  0.00  0.00     0.060 C 
BRANCH   7   8
ATOM      8  C2' I4B d   1       0.920   2.422   0.207  0.00  0.00    -0.013 C 
ATOM      9  C4' I4B d   1       2.350   2.605  -0.228  0.00  0.00     0.013 C 
ATOM     10  C3' I4B d   1       0.232   3.744   0.373  0.00  0.00     0.013 C 
ENDBRANCH   7   8
ENDBRANCH   1   7
TORSDOF 2
ENDMDL
