MODEL 1
REMARK minimizedAffinity -3.70984864
REMARK minimizedRMSD -1
REMARK  2 active torsions:
REMARK  status: ('A' for Active; 'I' for Inactive)
REMARK    1  A    between atoms: C2'_3  and  C1'_4 
REMARK    2  A    between atoms: C1'_4  and  C1_5 
ROOT
ATOM      1  C1  I4B d   1      -0.056   1.097  -0.200  0.00  0.00    -0.075 A 
ATOM      2  C2  I4B d   1       0.259   0.643  -1.456  0.00  0.00     0.003 A 
ATOM      3  C3  I4B d   1       0.128  -0.731  -1.772  0.00  0.00     0.002 A 
ATOM      4  C4  I4B d   1      -0.270  -1.618  -0.792  0.00  0.00    -0.004 A 
ATOM      5  C5  I4B d   1      -0.610  -1.153   0.475  0.00  0.00     0.002 A 
ATOM      6  C6  I4B d   1      -0.514   0.214   0.770  0.00  0.00     0.003 A 
ENDROOT
BRANCH   1   7
ATOM      7  C1' I4B d   1       0.126   2.549   0.109  0.00  0.00     0.060 C 
BRANCH   7   8
ATOM      8  C2' I4B d   1       1.462   2.716   0.803  0.00  0.00    -0.013 C 
ATOM      9  C4' I4B d   1       2.512   3.223  -0.151  0.00  0.00     0.013 C 
ATOM     10  C3' I4B d   1       1.273   3.660   1.952  0.00  0.00     0.013 C 
ENDBRANCH   7   8
ENDBRANCH   1   7
TORSDOF 2
ENDMDL
