MODEL 1
REMARK minimizedAffinity -5.66222239
REMARK minimizedRMSD -1
REMARK  2 active torsions:
REMARK  status: ('A' for Active; 'I' for Inactive)
REMARK    1  A    between atoms: C2'_3  and  C1'_4 
REMARK    2  A    between atoms: C1'_4  and  C1_5 
ROOT
ATOM      1  C1  I4B d   1       0.155  -1.374   0.621  0.00  0.00    -0.075 A 
ATOM      2  C2  I4B d   1      -0.683  -0.703   1.477  0.00  0.00     0.003 A 
ATOM      3  C3  I4B d   1      -0.948   0.674   1.281  0.00  0.00     0.002 A 
ATOM      4  C4  I4B d   1      -0.319   1.348   0.254  0.00  0.00    -0.004 A 
ATOM      5  C5  I4B d   1       0.512   0.661  -0.626  0.00  0.00     0.002 A 
ATOM      6  C6  I4B d   1       0.741  -0.711  -0.449  0.00  0.00     0.003 A 
ENDROOT
BRANCH   1   7
ATOM      7  C1' I4B d   1       0.439  -2.820   0.877  0.00  0.00     0.060 C 
BRANCH   7   8
ATOM      8  C2' I4B d   1      -0.499  -3.639   0.014  0.00  0.00    -0.013 C 
ATOM      9  C4' I4B d   1      -1.934  -3.237   0.234  0.00  0.00     0.013 C 
ATOM     10  C3' I4B d   1      -0.097  -3.449  -1.418  0.00  0.00     0.013 C 
ENDBRANCH   7   8
ENDBRANCH   1   7
TORSDOF 2
ENDMDL
