MODEL 1
REMARK minimizedAffinity -3.39320421
REMARK minimizedRMSD -1
REMARK  2 active torsions:
REMARK  status: ('A' for Active; 'I' for Inactive)
REMARK    1  A    between atoms: C2'_3  and  C1'_4 
REMARK    2  A    between atoms: C1'_4  and  C1_5 
ROOT
ATOM      1  C1  I4B d   1       0.047   0.849  -0.474  0.00  0.00    -0.075 A 
ATOM      2  C2  I4B d   1      -0.418   0.031   0.525  0.00  0.00     0.003 A 
ATOM      3  C3  I4B d   1      -0.658  -1.341   0.269  0.00  0.00     0.002 A 
ATOM      4  C4  I4B d   1      -0.468  -1.838  -1.004  0.00  0.00    -0.004 A 
ATOM      5  C5  I4B d   1       0.026  -1.012  -2.010  0.00  0.00     0.002 A 
ATOM      6  C6  I4B d   1       0.297   0.337  -1.740  0.00  0.00     0.003 A 
ENDROOT
BRANCH   1   7
ATOM      7  C1' I4B d   1       0.258   2.300  -0.177  0.00  0.00     0.060 C 
BRANCH   7   8
ATOM      8  C2' I4B d   1       1.597   2.445   0.516  0.00  0.00    -0.013 C 
ATOM      9  C4' I4B d   1       2.714   2.600  -0.483  0.00  0.00     0.013 C 
ATOM     10  C3' I4B d   1       1.520   3.631   1.430  0.00  0.00     0.013 C 
ENDBRANCH   7   8
ENDBRANCH   1   7
TORSDOF 2
ENDMDL
