MODEL 1
REMARK minimizedAffinity -5.06397724
REMARK minimizedRMSD -1
REMARK  2 active torsions:
REMARK  status: ('A' for Active; 'I' for Inactive)
REMARK    1  A    between atoms: C2'_3  and  C1'_4 
REMARK    2  A    between atoms: C1'_4  and  C1_5 
ROOT
ATOM      1  C1  I4B d   1       0.019  -1.304  -0.124  0.00  0.00    -0.075 A 
ATOM      2  C2  I4B d   1      -0.140  -2.424   0.652  0.00  0.00     0.003 A 
ATOM      3  C3  I4B d   1      -0.114  -3.711   0.061  0.00  0.00     0.002 A 
ATOM      4  C4  I4B d   1       0.022  -3.828  -1.307  0.00  0.00    -0.004 A 
ATOM      5  C5  I4B d   1       0.206  -2.692  -2.090  0.00  0.00     0.002 A 
ATOM      6  C6  I4B d   1       0.217  -1.422  -1.494  0.00  0.00     0.003 A 
ENDROOT
BRANCH   1   7
ATOM      7  C1' I4B d   1      -0.046   0.040   0.528  0.00  0.00     0.060 C 
BRANCH   7   8
ATOM      8  C2' I4B d   1       0.491   1.062  -0.453  0.00  0.00    -0.013 C 
ATOM      9  C4' I4B d   1      -0.573   1.493  -1.428  0.00  0.00     0.013 C 
ATOM     10  C3' I4B d   1       1.011   2.230   0.332  0.00  0.00     0.013 C 
ENDBRANCH   7   8
ENDBRANCH   1   7
TORSDOF 2
ENDMDL
