MODEL 1
REMARK minimizedAffinity -2.75427604
REMARK minimizedRMSD -1
REMARK  2 active torsions:
REMARK  status: ('A' for Active; 'I' for Inactive)
REMARK    1  A    between atoms: C2'_3  and  C1'_4 
REMARK    2  A    between atoms: C1'_4  and  C1_5 
ROOT
ATOM      1  C1  I4B d   1      -0.391  -0.694   0.049  0.00  0.00    -0.075 A 
ATOM      2  C2  I4B d   1      -0.831  -1.638   0.944  0.00  0.00     0.003 A 
ATOM      3  C3  I4B d   1      -0.702  -3.016   0.647  0.00  0.00     0.002 A 
ATOM      4  C4  I4B d   1      -0.178  -3.403  -0.570  0.00  0.00    -0.004 A 
ATOM      5  C5  I4B d   1       0.289  -2.445  -1.466  0.00  0.00     0.002 A 
ATOM      6  C6  I4B d   1       0.193  -1.083  -1.149  0.00  0.00     0.003 A 
ENDROOT
BRANCH   1   7
ATOM      7  C1' I4B d   1      -0.573   0.753   0.381  0.00  0.00     0.060 C 
BRANCH   7   8
ATOM      8  C2' I4B d   1       0.437   1.546  -0.423  0.00  0.00    -0.013 C 
ATOM      9  C4' I4B d   1      -0.180   2.098  -1.681  0.00  0.00     0.013 C 
ATOM     10  C3' I4B d   1       0.962   2.647   0.450  0.00  0.00     0.013 C 
ENDBRANCH   7   8
ENDBRANCH   1   7
TORSDOF 2
ENDMDL
