MODEL 1
REMARK minimizedAffinity -5.28285265
REMARK minimizedRMSD -1
REMARK  2 active torsions:
REMARK  status: ('A' for Active; 'I' for Inactive)
REMARK    1  A    between atoms: C2'_3  and  C1'_4 
REMARK    2  A    between atoms: C1'_4  and  C1_5 
ROOT
ATOM      1  C1  I4B d   1       0.518  -1.818  -0.274  0.00  0.00    -0.075 A 
ATOM      2  C2  I4B d   1       0.116  -3.126  -0.177  0.00  0.00     0.003 A 
ATOM      3  C3  I4B d   1      -0.148  -3.879  -1.347  0.00  0.00     0.002 A 
ATOM      4  C4  I4B d   1      -0.046  -3.274  -2.582  0.00  0.00    -0.004 A 
ATOM      5  C5  I4B d   1       0.384  -1.954  -2.680  0.00  0.00     0.002 A 
ATOM      6  C6  I4B d   1       0.680  -1.224  -1.519  0.00  0.00     0.003 A 
ENDROOT
BRANCH   1   7
ATOM      7  C1' I4B d   1       0.757  -1.042   0.983  0.00  0.00     0.060 C 
BRANCH   7   8
ATOM      8  C2' I4B d   1      -0.241   0.098   1.024  0.00  0.00    -0.013 C 
ATOM      9  C4' I4B d   1      -0.094   0.995  -0.176  0.00  0.00     0.013 C 
ATOM     10  C3' I4B d   1      -1.617  -0.495   1.092  0.00  0.00     0.013 C 
ENDBRANCH   7   8
ENDBRANCH   1   7
TORSDOF 2
ENDMDL
