MODEL 1
REMARK minimizedAffinity -5.89612913
REMARK minimizedRMSD -1
REMARK  2 active torsions:
REMARK  status: ('A' for Active; 'I' for Inactive)
REMARK    1  A    between atoms: C2'_3  and  C1'_4 
REMARK    2  A    between atoms: C1'_4  and  C1_5 
ROOT
ATOM      1  C1  I4B d   1       0.400  -0.987  -0.153  0.00  0.00    -0.075 A 
ATOM      2  C2  I4B d   1       0.225  -1.187  -1.500  0.00  0.00     0.003 A 
ATOM      3  C3  I4B d   1      -0.034  -2.486  -2.000  0.00  0.00     0.002 A 
ATOM      4  C4  I4B d   1      -0.060  -3.556  -1.130  0.00  0.00    -0.004 A 
ATOM      5  C5  I4B d   1       0.095  -3.349   0.238  0.00  0.00     0.002 A 
ATOM      6  C6  I4B d   1       0.314  -2.054   0.731  0.00  0.00     0.003 A 
ENDROOT
BRANCH   1   7
ATOM      7  C1' I4B d   1       0.705   0.393   0.338  0.00  0.00     0.060 C 
BRANCH   7   8
ATOM      8  C2' I4B d   1      -0.362   1.326  -0.200  0.00  0.00    -0.013 C 
ATOM      9  C4' I4B d   1      -1.703   1.036   0.421  0.00  0.00     0.013 C 
ATOM     10  C3' I4B d   1       0.072   2.734   0.079  0.00  0.00     0.013 C 
ENDBRANCH   7   8
ENDBRANCH   1   7
TORSDOF 2
ENDMDL
