MODEL 1
REMARK minimizedAffinity -4.91917086
REMARK minimizedRMSD -1
REMARK  2 active torsions:
REMARK  status: ('A' for Active; 'I' for Inactive)
REMARK    1  A    between atoms: C2'_3  and  C1'_4 
REMARK    2  A    between atoms: C1'_4  and  C1_5 
ROOT
ATOM      1  C1  I4B d   1       0.039  -1.262  -0.290  0.00  0.00    -0.075 A 
ATOM      2  C2  I4B d   1      -0.438  -2.370   0.364  0.00  0.00     0.003 A 
ATOM      3  C3  I4B d   1      -0.375  -3.644  -0.252  0.00  0.00     0.002 A 
ATOM      4  C4  I4B d   1       0.123  -3.754  -1.535  0.00  0.00    -0.004 A 
ATOM      5  C5  I4B d   1       0.627  -2.633  -2.187  0.00  0.00     0.002 A 
ATOM      6  C6  I4B d   1       0.596  -1.380  -1.557  0.00  0.00     0.003 A 
ENDROOT
BRANCH   1   7
ATOM      7  C1' I4B d   1      -0.074   0.073   0.376  0.00  0.00     0.060 C 
BRANCH   7   8
ATOM      8  C2' I4B d   1       0.451   1.120  -0.584  0.00  0.00    -0.013 C 
ATOM      9  C4' I4B d   1      -0.660   1.695  -1.424  0.00  0.00     0.013 C 
ATOM     10  C3' I4B d   1       1.129   2.188   0.221  0.00  0.00     0.013 C 
ENDBRANCH   7   8
ENDBRANCH   1   7
TORSDOF 2
ENDMDL
