MODEL 1
REMARK minimizedAffinity -4.39877272
REMARK minimizedRMSD -1
REMARK  2 active torsions:
REMARK  status: ('A' for Active; 'I' for Inactive)
REMARK    1  A    between atoms: C2'_3  and  C1'_4 
REMARK    2  A    between atoms: C1'_4  and  C1_5 
ROOT
ATOM      1  C1  I4B d   1      -0.397  -1.360  -0.212  0.00  0.00    -0.075 A 
ATOM      2  C2  I4B d   1       0.192  -1.692  -1.407  0.00  0.00     0.003 A 
ATOM      3  C3  I4B d   1       0.577  -3.030  -1.664  0.00  0.00     0.002 A 
ATOM      4  C4  I4B d   1       0.402  -3.988  -0.686  0.00  0.00    -0.004 A 
ATOM      5  C5  I4B d   1      -0.216  -3.655   0.515  0.00  0.00     0.002 A 
ATOM      6  C6  I4B d   1      -0.629  -2.335   0.750  0.00  0.00     0.003 A 
ENDROOT
BRANCH   1   7
ATOM      7  C1' I4B d   1      -0.761   0.068   0.040  0.00  0.00     0.060 C 
BRANCH   7   8
ATOM      8  C2' I4B d   1       0.005   0.926  -0.947  0.00  0.00    -0.013 C 
ATOM      9  C4' I4B d   1      -0.893   1.423  -2.049  0.00  0.00     0.013 C 
ATOM     10  C3' I4B d   1       0.617   2.067  -0.190  0.00  0.00     0.013 C 
ENDBRANCH   7   8
ENDBRANCH   1   7
TORSDOF 2
ENDMDL
