MODEL 1
REMARK minimizedAffinity -3.38392186
REMARK minimizedRMSD -1
REMARK  0 active torsions:
REMARK  status: ('A' for Active; 'I' for Inactive)
ROOT
ATOM      1  C4' PXY d   1      -0.754  -0.372  -6.000  0.00  0.00     0.077 C 
ATOM      2  C1' PXY d   1       1.503  -0.274  -0.679  0.00  0.00     0.077 C 
ATOM      3  C1  PXY d   1       0.916  -0.288  -2.077  0.00  0.00    -0.082 A 
ATOM      4  C2  PXY d   1      -0.137  -1.046  -2.336  0.00  0.00     0.003 A 
ATOM      5  C3  PXY d   1      -0.661  -1.095  -3.603  0.00  0.00     0.003 A 
ATOM      6  C4  PXY d   1      -0.134  -0.320  -4.601  0.00  0.00    -0.082 A 
ATOM      7  C5  PXY d   1       0.934   0.464  -4.341  0.00  0.00     0.003 A 
ATOM      8  C6  PXY d   1       1.476   0.469  -3.059  0.00  0.00     0.003 A 
ENDROOT
TORSDOF 0
ENDMDL
