MODEL 1
REMARK minimizedAffinity -4.04360819
REMARK minimizedRMSD -1
REMARK  0 active torsions:
REMARK  status: ('A' for Active; 'I' for Inactive)
ROOT
ATOM      1  C4' PXY d   1       0.747  -0.565  -1.298  0.00  0.00     0.077 C 
ATOM      2  C1' PXY d   1      -1.069   1.933   3.588  0.00  0.00     0.077 C 
ATOM      3  C1  PXY d   1      -0.583   1.286   2.306  0.00  0.00    -0.082 A 
ATOM      4  C2  PXY d   1      -1.443   0.653   1.526  0.00  0.00     0.003 A 
ATOM      5  C3  PXY d   1      -1.014   0.034   0.380  0.00  0.00     0.003 A 
ATOM      6  C4  PXY d   1       0.299   0.111   0.001  0.00  0.00    -0.082 A 
ATOM      7  C5  PXY d   1       1.181   0.765   0.786  0.00  0.00     0.003 A 
ATOM      8  C6  PXY d   1       0.733   1.351   1.967  0.00  0.00     0.003 A 
ENDROOT
TORSDOF 0
ENDMDL
