MODEL 1
REMARK minimizedAffinity -4.01967859
REMARK minimizedRMSD -1
REMARK  0 active torsions:
REMARK  status: ('A' for Active; 'I' for Inactive)
ROOT
ATOM      1  C4' PXY d   1      -1.201  -2.904  -1.400  0.00  0.00     0.077 C 
ATOM      2  C1' PXY d   1      -0.646   1.728   2.013  0.00  0.00     0.077 C 
ATOM      3  C1  PXY d   1      -0.780   0.516   1.112  0.00  0.00    -0.082 A 
ATOM      4  C2  PXY d   1      -1.980   0.023   0.854  0.00  0.00     0.003 A 
ATOM      5  C3  PXY d   1      -2.117  -1.092   0.067  0.00  0.00     0.003 A 
ATOM      6  C4  PXY d   1      -1.019  -1.676  -0.504  0.00  0.00    -0.082 A 
ATOM      7  C5  PXY d   1       0.209  -1.172  -0.253  0.00  0.00     0.003 A 
ATOM      8  C6  PXY d   1       0.329  -0.065   0.581  0.00  0.00     0.003 A 
ENDROOT
TORSDOF 0
ENDMDL
