MODEL 1
REMARK minimizedAffinity 2.93556261
REMARK minimizedRMSD -1
REMARK  0 active torsions:
REMARK  status: ('A' for Active; 'I' for Inactive)
ROOT
ATOM      1  C4' PXY d   1       1.288   0.079  -3.617  0.00  0.00     0.077 C 
ATOM      2  C1' PXY d   1       0.245   0.559   2.049  0.00  0.00     0.077 C 
ATOM      3  C1  PXY d   1       0.530   0.427   0.566  0.00  0.00    -0.082 A 
ATOM      4  C2  PXY d   1      -0.035   1.267  -0.286  0.00  0.00     0.003 A 
ATOM      5  C3  PXY d   1       0.186   1.142  -1.633  0.00  0.00     0.003 A 
ATOM      6  C4  PXY d   1       1.037   0.181  -2.110  0.00  0.00    -0.082 A 
ATOM      7  C5  PXY d   1       1.626  -0.673  -1.246  0.00  0.00     0.003 A 
ATOM      8  C6  PXY d   1       1.356  -0.556   0.114  0.00  0.00     0.003 A 
ENDROOT
TORSDOF 0
ENDMDL
