MODEL 1
REMARK minimizedAffinity 0.0953901336
REMARK minimizedRMSD -1
REMARK  0 active torsions:
REMARK  status: ('A' for Active; 'I' for Inactive)
ROOT
ATOM      1  C4' PXY d   1       1.698  -0.428  -3.267  0.00  0.00     0.077 C 
ATOM      2  C1' PXY d   1      -0.175   0.567   2.110  0.00  0.00     0.077 C 
ATOM      3  C1  PXY d   1       0.327   0.300   0.705  0.00  0.00    -0.082 A 
ATOM      4  C2  PXY d   1      -0.018   1.115  -0.279  0.00  0.00     0.003 A 
ATOM      5  C3  PXY d   1       0.401   0.869  -1.562  0.00  0.00     0.003 A 
ATOM      6  C4  PXY d   1       1.223  -0.191  -1.831  0.00  0.00    -0.082 A 
ATOM      7  C5  PXY d   1       1.588  -1.021  -0.831  0.00  0.00     0.003 A 
ATOM      8  C6  PXY d   1       1.119  -0.779   0.457  0.00  0.00     0.003 A 
ENDROOT
TORSDOF 0
ENDMDL
