MODEL 1
REMARK minimizedAffinity -2.23289108
REMARK minimizedRMSD -1
REMARK  0 active torsions:
REMARK  status: ('A' for Active; 'I' for Inactive)
ROOT
ATOM      1  C4' PXY d   1      -3.074  -2.111  -0.046  0.00  0.00     0.077 C 
ATOM      2  C1' PXY d   1       0.624   1.799   2.065  0.00  0.00     0.077 C 
ATOM      3  C1  PXY d   1      -0.349   0.771   1.523  0.00  0.00    -0.082 A 
ATOM      4  C2  PXY d   1      -0.174   0.282   0.306  0.00  0.00     0.003 A 
ATOM      5  C3  PXY d   1      -1.063  -0.625  -0.211  0.00  0.00     0.003 A 
ATOM      6  C4  PXY d   1      -2.111  -1.077   0.545  0.00  0.00    -0.082 A 
ATOM      7  C5  PXY d   1      -2.290  -0.592   1.792  0.00  0.00     0.003 A 
ATOM      8  C6  PXY d   1      -1.400   0.360   2.283  0.00  0.00     0.003 A 
ENDROOT
TORSDOF 0
ENDMDL
