MODEL 1
REMARK minimizedAffinity 3.58188248
REMARK minimizedRMSD -1
REMARK  0 active torsions:
REMARK  status: ('A' for Active; 'I' for Inactive)
ROOT
ATOM      1  C4' PXY d   1      -1.238   1.891  -1.356  0.00  0.00     0.077 C 
ATOM      2  C1' PXY d   1       2.407  -0.339   2.538  0.00  0.00     0.077 C 
ATOM      3  C1  PXY d   1       1.456   0.238   1.508  0.00  0.00    -0.082 A 
ATOM      4  C2  PXY d   1       0.933   1.439   1.700  0.00  0.00     0.003 A 
ATOM      5  C3  PXY d   1       0.047   1.962   0.794  0.00  0.00     0.003 A 
ATOM      6  C4  PXY d   1      -0.266   1.273  -0.347  0.00  0.00    -0.082 A 
ATOM      7  C5  PXY d   1       0.271   0.052  -0.555  0.00  0.00     0.003 A 
ATOM      8  C6  PXY d   1       1.137  -0.479   0.397  0.00  0.00     0.003 A 
ENDROOT
TORSDOF 0
ENDMDL
