MODEL 1
REMARK minimizedAffinity -3.81916428
REMARK minimizedRMSD -1
REMARK  0 active torsions:
REMARK  status: ('A' for Active; 'I' for Inactive)
ROOT
ATOM      1  C2' OXE d   1      -1.932  -0.158   3.516  0.00  0.00     0.078 C 
ATOM      2  C1' OXE d   1      -3.244   0.275   1.072  0.00  0.00     0.078 C 
ATOM      3  C1  OXE d   1      -1.745   0.107   1.046  0.00  0.00    -0.078 A 
ATOM      4  C2  OXE d   1      -1.107  -0.058   2.251  0.00  0.00    -0.078 A 
ATOM      5  C3  OXE d   1       0.269  -0.273   2.279  0.00  0.00     0.003 A 
ATOM      6  C4  OXE d   1       1.026  -0.169   1.106  0.00  0.00    -0.002 A 
ATOM      7  C5  OXE d   1       0.399   0.039  -0.128  0.00  0.00    -0.002 A 
ATOM      8  C6  OXE d   1      -0.987   0.136  -0.180  0.00  0.00     0.003 A 
ENDROOT
TORSDOF 0
ENDMDL
