MODEL 1
REMARK minimizedAffinity 6.46742296
REMARK minimizedRMSD -1
REMARK  0 active torsions:
REMARK  status: ('A' for Active; 'I' for Inactive)
ROOT
ATOM      1  C2' OXE d   1       1.852   2.178   0.761  0.00  0.00     0.078 C 
ATOM      2  C1' OXE d   1       0.554   1.755   3.214  0.00  0.00     0.078 C 
ATOM      3  C1  OXE d   1       0.827   0.552   2.345  0.00  0.00    -0.078 A 
ATOM      4  C2  OXE d   1       1.420   0.774   1.126  0.00  0.00    -0.078 A 
ATOM      5  C3  OXE d   1       1.743  -0.306   0.310  0.00  0.00     0.003 A 
ATOM      6  C4  OXE d   1       1.331  -1.600   0.651  0.00  0.00    -0.002 A 
ATOM      7  C5  OXE d   1       0.690  -1.843   1.870  0.00  0.00    -0.002 A 
ATOM      8  C6  OXE d   1       0.469  -0.786   2.746  0.00  0.00     0.003 A 
ENDROOT
TORSDOF 0
ENDMDL
