MODEL 1
REMARK minimizedAffinity -3.05560422
REMARK minimizedRMSD -1
REMARK  0 active torsions:
REMARK  status: ('A' for Active; 'I' for Inactive)
ROOT
ATOM      1  C2' OXE d   1       0.369   0.106  -1.446  0.00  0.00     0.078 C 
ATOM      2  C1' OXE d   1      -2.143   0.701  -0.343  0.00  0.00     0.078 C 
ATOM      3  C1  OXE d   1      -0.979   0.542   0.603  0.00  0.00    -0.078 A 
ATOM      4  C2  OXE d   1       0.237   0.205   0.059  0.00  0.00    -0.078 A 
ATOM      5  C3  OXE d   1       1.355   0.100   0.881  0.00  0.00     0.003 A 
ATOM      6  C4  OXE d   1       1.222   0.182   2.272  0.00  0.00    -0.002 A 
ATOM      7  C5  OXE d   1      -0.015   0.486   2.850  0.00  0.00    -0.002 A 
ATOM      8  C6  OXE d   1      -1.114   0.710   2.029  0.00  0.00     0.003 A 
ENDROOT
TORSDOF 0
ENDMDL
