MODEL 1
REMARK minimizedAffinity -3.52070856
REMARK minimizedRMSD -1
REMARK  0 active torsions:
REMARK  status: ('A' for Active; 'I' for Inactive)
ROOT
ATOM      1  C2' OXE d   1      -1.910   1.173  -0.827  0.00  0.00     0.078 C 
ATOM      2  C1' OXE d   1       0.552   0.090  -1.630  0.00  0.00     0.078 C 
ATOM      3  C1  OXE d   1       0.294   0.229  -0.151  0.00  0.00    -0.078 A 
ATOM      4  C2  OXE d   1      -0.894   0.804   0.233  0.00  0.00    -0.078 A 
ATOM      5  C3  OXE d   1      -1.205   0.906   1.585  0.00  0.00     0.003 A 
ATOM      6  C4  OXE d   1      -0.256   0.571   2.559  0.00  0.00    -0.002 A 
ATOM      7  C5  OXE d   1       0.976   0.021   2.189  0.00  0.00    -0.002 A 
ATOM      8  C6  OXE d   1       1.249  -0.195   0.843  0.00  0.00     0.003 A 
ENDROOT
TORSDOF 0
ENDMDL
