MODEL 1
REMARK minimizedAffinity -2.25223923
REMARK minimizedRMSD -1
REMARK  0 active torsions:
REMARK  status: ('A' for Active; 'I' for Inactive)
ROOT
ATOM      1  C2' OXE d   1      -2.218   0.127  -0.780  0.00  0.00     0.078 C 
ATOM      2  C1' OXE d   1       0.439   0.702  -0.077  0.00  0.00     0.078 C 
ATOM      3  C1  OXE d   1       0.201  -0.362  -1.120  0.00  0.00    -0.078 A 
ATOM      4  C2  OXE d   1      -1.103  -0.670  -1.423  0.00  0.00    -0.078 A 
ATOM      5  C3  OXE d   1      -1.378  -1.605  -2.417  0.00  0.00     0.003 A 
ATOM      6  C4  OXE d   1      -0.342  -2.344  -3.000  0.00  0.00    -0.002 A 
ATOM      7  C5  OXE d   1       0.992  -2.075  -2.676  0.00  0.00    -0.002 A 
ATOM      8  C6  OXE d   1       1.282  -1.060  -1.771  0.00  0.00     0.003 A 
ENDROOT
TORSDOF 0
ENDMDL
