MODEL 1
REMARK minimizedAffinity -1.22474587
REMARK minimizedRMSD -1
REMARK  0 active torsions:
REMARK  status: ('A' for Active; 'I' for Inactive)
ROOT
ATOM      1  C2' OXE d   1      -0.947   1.866  -1.498  0.00  0.00     0.078 C 
ATOM      2  C1' OXE d   1       0.971  -0.005  -2.335  0.00  0.00     0.078 C 
ATOM      3  C1  OXE d   1       0.644   0.057  -0.864  0.00  0.00    -0.078 A 
ATOM      4  C2  OXE d   1      -0.262   1.007  -0.457  0.00  0.00    -0.078 A 
ATOM      5  C3  OXE d   1      -0.640   1.070   0.881  0.00  0.00     0.003 A 
ATOM      6  C4  OXE d   1       0.006   0.279   1.838  0.00  0.00    -0.002 A 
ATOM      7  C5  OXE d   1       0.960  -0.667   1.451  0.00  0.00    -0.002 A 
ATOM      8  C6  OXE d   1       1.259  -0.820   0.101  0.00  0.00     0.003 A 
ENDROOT
TORSDOF 0
ENDMDL
