MODEL 1
REMARK minimizedAffinity -0.893680751
REMARK minimizedRMSD -1
REMARK  0 active torsions:
REMARK  status: ('A' for Active; 'I' for Inactive)
ROOT
ATOM      1  C2' OXE d   1       0.652  -0.519  -1.630  0.00  0.00     0.078 C 
ATOM      2  C1' OXE d   1      -1.689   0.709  -0.685  0.00  0.00     0.078 C 
ATOM      3  C1  OXE d   1      -0.573   0.471   0.301  0.00  0.00    -0.078 A 
ATOM      4  C2  OXE d   1       0.551  -0.173  -0.160  0.00  0.00    -0.078 A 
ATOM      5  C3  OXE d   1       1.632  -0.369   0.695  0.00  0.00     0.003 A 
ATOM      6  C4  OXE d   1       1.527  -0.055   2.055  0.00  0.00    -0.002 A 
ATOM      7  C5  OXE d   1       0.376   0.565   2.553  0.00  0.00    -0.002 A 
ATOM      8  C6  OXE d   1      -0.664   0.873   1.683  0.00  0.00     0.003 A 
ENDROOT
TORSDOF 0
ENDMDL
