MODEL 1
REMARK minimizedAffinity -1.20857203
REMARK minimizedRMSD -1
REMARK  0 active torsions:
REMARK  status: ('A' for Active; 'I' for Inactive)
ROOT
ATOM      1  C2' OXE d   1       0.366   0.010  -1.608  0.00  0.00     0.078 C 
ATOM      2  C1' OXE d   1      -2.108   0.938  -0.661  0.00  0.00     0.078 C 
ATOM      3  C1  OXE d   1      -1.044   0.609   0.356  0.00  0.00    -0.078 A 
ATOM      4  C2  OXE d   1       0.147   0.111  -0.114  0.00  0.00    -0.078 A 
ATOM      5  C3  OXE d   1       1.182  -0.157   0.778  0.00  0.00     0.003 A 
ATOM      6  C4  OXE d   1       0.968  -0.070   2.159  0.00  0.00    -0.002 A 
ATOM      7  C5  OXE d   1      -0.251   0.398   2.660  0.00  0.00    -0.002 A 
ATOM      8  C6  OXE d   1      -1.251   0.781   1.773  0.00  0.00     0.003 A 
ENDROOT
TORSDOF 0
ENDMDL
