MODEL 1
REMARK minimizedAffinity -2.74980044
REMARK minimizedRMSD -1
REMARK  0 active torsions:
REMARK  status: ('A' for Active; 'I' for Inactive)
ROOT
ATOM      1  C2' OXE d   1       0.536   0.489  -0.233  0.00  0.00     0.078 C 
ATOM      2  C1' OXE d   1      -0.896  -1.886  -0.667  0.00  0.00     0.078 C 
ATOM      3  C1  OXE d   1       0.091  -1.457  -1.723  0.00  0.00    -0.078 A 
ATOM      4  C2  OXE d   1       0.753  -0.269  -1.525  0.00  0.00    -0.078 A 
ATOM      5  C3  OXE d   1       1.714   0.146  -2.442  0.00  0.00     0.003 A 
ATOM      6  C4  OXE d   1       1.902  -0.556  -3.639  0.00  0.00    -0.002 A 
ATOM      7  C5  OXE d   1       1.208  -1.747  -3.880  0.00  0.00    -0.002 A 
ATOM      8  C6  OXE d   1       0.333  -2.233  -2.915  0.00  0.00     0.003 A 
ENDROOT
TORSDOF 0
ENDMDL
