MODEL 1
REMARK minimizedAffinity -0.506531417
REMARK minimizedRMSD -1
REMARK  0 active torsions:
REMARK  status: ('A' for Active; 'I' for Inactive)
ROOT
ATOM      1  C2' OXE d   1      -1.505  -1.251  -1.147  0.00  0.00     0.078 C 
ATOM      2  C1' OXE d   1       0.390   0.653  -0.330  0.00  0.00     0.078 C 
ATOM      3  C1  OXE d   1       0.719  -0.196  -1.532  0.00  0.00    -0.078 A 
ATOM      4  C2  OXE d   1      -0.193  -1.157  -1.897  0.00  0.00    -0.078 A 
ATOM      5  C3  OXE d   1       0.036  -1.931  -3.031  0.00  0.00     0.003 A 
ATOM      6  C4  OXE d   1       1.256  -1.845  -3.713  0.00  0.00    -0.002 A 
ATOM      7  C5  OXE d   1       2.216  -0.900  -3.334  0.00  0.00    -0.002 A 
ATOM      8  C6  OXE d   1       1.946  -0.041  -2.275  0.00  0.00     0.003 A 
ENDROOT
TORSDOF 0
ENDMDL
