MODEL 1
REMARK minimizedAffinity 0.242041662
REMARK minimizedRMSD -1
REMARK  0 active torsions:
REMARK  status: ('A' for Active; 'I' for Inactive)
ROOT
ATOM      1  C2' OXE d   1      -1.960   0.815  -0.745  0.00  0.00     0.078 C 
ATOM      2  C1' OXE d   1      -0.011  -0.791  -1.973  0.00  0.00     0.078 C 
ATOM      3  C1  OXE d   1       0.231  -0.355  -0.549  0.00  0.00    -0.078 A 
ATOM      4  C2  OXE d   1      -0.705   0.468   0.028  0.00  0.00    -0.078 A 
ATOM      5  C3  OXE d   1      -0.558   0.855   1.357  0.00  0.00     0.003 A 
ATOM      6  C4  OXE d   1       0.610   0.539   2.062  0.00  0.00    -0.002 A 
ATOM      7  C5  OXE d   1       1.594  -0.267   1.479  0.00  0.00    -0.002 A 
ATOM      8  C6  OXE d   1       1.401  -0.756   0.192  0.00  0.00     0.003 A 
ENDROOT
TORSDOF 0
ENDMDL
