MODEL 1
REMARK minimizedAffinity -5.17702818
REMARK minimizedRMSD -1
REMARK  0 active torsions:
REMARK  status: ('A' for Active; 'I' for Inactive)
ROOT
ATOM      1  C2' OXE d   1       1.126  -2.084  -3.000  0.00  0.00     0.078 C 
ATOM      2  C1' OXE d   1       0.520   0.552  -3.750  0.00  0.00     0.078 C 
ATOM      3  C1  OXE d   1       0.006   0.064  -2.419  0.00  0.00    -0.078 A 
ATOM      4  C2  OXE d   1       0.268  -1.242  -2.081  0.00  0.00    -0.078 A 
ATOM      5  C3  OXE d   1      -0.136  -1.727  -0.840  0.00  0.00     0.003 A 
ATOM      6  C4  OXE d   1      -0.938  -0.945  -0.000  0.00  0.00    -0.002 A 
ATOM      7  C5  OXE d   1      -1.249   0.375  -0.343  0.00  0.00    -0.002 A 
ATOM      8  C6  OXE d   1      -0.750   0.907  -1.527  0.00  0.00     0.003 A 
ENDROOT
TORSDOF 0
ENDMDL
