MODEL 1
REMARK minimizedAffinity 2.35680723
REMARK minimizedRMSD -1
REMARK  0 active torsions:
REMARK  status: ('A' for Active; 'I' for Inactive)
ROOT
ATOM      1  C2' OXE d   1      -2.249   1.032   2.080  0.00  0.00     0.078 C 
ATOM      2  C1' OXE d   1      -2.095   0.648  -0.697  0.00  0.00     0.078 C 
ATOM      3  C1  OXE d   1      -0.836   0.455   0.111  0.00  0.00    -0.078 A 
ATOM      4  C2  OXE d   1      -0.910   0.691   1.463  0.00  0.00    -0.078 A 
ATOM      5  C3  OXE d   1       0.208   0.474   2.262  0.00  0.00     0.003 A 
ATOM      6  C4  OXE d   1       1.446   0.168   1.683  0.00  0.00    -0.002 A 
ATOM      7  C5  OXE d   1       1.552  -0.037   0.303  0.00  0.00    -0.002 A 
ATOM      8  C6  OXE d   1       0.414   0.060  -0.490  0.00  0.00     0.003 A 
ENDROOT
TORSDOF 0
ENDMDL
