MODEL 1
REMARK minimizedAffinity -4.73731899
REMARK minimizedRMSD -1
REMARK  0 active torsions:
REMARK  status: ('A' for Active; 'I' for Inactive)
ROOT
ATOM      1  C2' OXE d   1      -3.232   0.622   0.632  0.00  0.00     0.078 C 
ATOM      2  C1' OXE d   1      -1.900  -0.238   2.948  0.00  0.00     0.078 C 
ATOM      3  C1  OXE d   1      -1.060   0.146   1.756  0.00  0.00    -0.078 A 
ATOM      4  C2  OXE d   1      -1.722   0.522   0.611  0.00  0.00    -0.078 A 
ATOM      5  C3  OXE d   1      -0.994   0.939  -0.500  0.00  0.00     0.003 A 
ATOM      6  C4  OXE d   1       0.402   0.833  -0.513  0.00  0.00    -0.002 A 
ATOM      7  C5  OXE d   1       1.093   0.415   0.629  0.00  0.00    -0.002 A 
ATOM      8  C6  OXE d   1       0.381   0.110   1.783  0.00  0.00     0.003 A 
ENDROOT
TORSDOF 0
ENDMDL
