MODEL 1
REMARK minimizedAffinity -4.51413345
REMARK minimizedRMSD -1
REMARK  0 active torsions:
REMARK  status: ('A' for Active; 'I' for Inactive)
ROOT
ATOM      1  C2' OXE d   1       0.279   0.442  -0.900  0.00  0.00     0.078 C 
ATOM      2  C1' OXE d   1      -2.502   0.785  -0.730  0.00  0.00     0.078 C 
ATOM      3  C1  OXE d   1      -1.739   0.572   0.554  0.00  0.00    -0.078 A 
ATOM      4  C2  OXE d   1      -0.385   0.358   0.457  0.00  0.00    -0.078 A 
ATOM      5  C3  OXE d   1       0.374   0.211   1.615  0.00  0.00     0.003 A 
ATOM      6  C4  OXE d   1      -0.250   0.125   2.865  0.00  0.00    -0.002 A 
ATOM      7  C5  OXE d   1      -1.633   0.300   2.982  0.00  0.00    -0.002 A 
ATOM      8  C6  OXE d   1      -2.385   0.566   1.844  0.00  0.00     0.003 A 
ENDROOT
TORSDOF 0
ENDMDL
