MODEL 1
REMARK minimizedAffinity -1.77209592
REMARK minimizedRMSD -1
REMARK  0 active torsions:
REMARK  status: ('A' for Active; 'I' for Inactive)
ROOT
ATOM      1  C2' OXE d   1       1.543   0.615   2.343  0.00  0.00     0.078 C 
ATOM      2  C1' OXE d   1       0.849  -1.391   0.506  0.00  0.00     0.078 C 
ATOM      3  C1  OXE d   1      -0.257  -0.771   1.322  0.00  0.00    -0.078 A 
ATOM      4  C2  OXE d   1       0.097   0.177   2.251  0.00  0.00    -0.078 A 
ATOM      5  C3  OXE d   1      -0.890   0.820   2.992  0.00  0.00     0.003 A 
ATOM      6  C4  OXE d   1      -2.224   0.402   2.909  0.00  0.00    -0.002 A 
ATOM      7  C5  OXE d   1      -2.601  -0.590   1.997  0.00  0.00    -0.002 A 
ATOM      8  C6  OXE d   1      -1.639  -1.155   1.168  0.00  0.00     0.003 A 
ENDROOT
TORSDOF 0
ENDMDL
