MODEL 1
REMARK minimizedAffinity -4.45267582
REMARK minimizedRMSD -1
REMARK  0 active torsions:
REMARK  status: ('A' for Active; 'I' for Inactive)
ROOT
ATOM      1  C2' OXE d   1       0.711   1.032  -0.212  0.00  0.00     0.078 C 
ATOM      2  C1' OXE d   1       1.764   0.143   2.234  0.00  0.00     0.078 C 
ATOM      3  C1  OXE d   1       0.305  -0.123   1.957  0.00  0.00    -0.078 A 
ATOM      4  C2  OXE d   1      -0.212   0.357   0.778  0.00  0.00    -0.078 A 
ATOM      5  C3  OXE d   1      -1.538   0.091   0.449  0.00  0.00     0.003 A 
ATOM      6  C4  OXE d   1      -2.389  -0.526   1.375  0.00  0.00    -0.002 A 
ATOM      7  C5  OXE d   1      -1.891  -0.987   2.598  0.00  0.00    -0.002 A 
ATOM      8  C6  OXE d   1      -0.540  -0.832   2.886  0.00  0.00     0.003 A 
ENDROOT
TORSDOF 0
ENDMDL
