MODEL 1
REMARK minimizedAffinity -2.677315
REMARK minimizedRMSD -1
REMARK  0 active torsions:
REMARK  status: ('A' for Active; 'I' for Inactive)
ROOT
ATOM      1  C2' OXE d   1       2.653  -2.066   0.155  0.00  0.00     0.078 C 
ATOM      2  C1' OXE d   1       3.033   0.565   1.059  0.00  0.00     0.078 C 
ATOM      3  C1  OXE d   1       1.616   0.077   0.890  0.00  0.00    -0.078 A 
ATOM      4  C2  OXE d   1       1.439  -1.196   0.402  0.00  0.00    -0.078 A 
ATOM      5  C3  OXE d   1       0.153  -1.714   0.278  0.00  0.00     0.003 A 
ATOM      6  C4  OXE d   1      -0.964  -0.900   0.499  0.00  0.00    -0.002 A 
ATOM      7  C5  OXE d   1      -0.806   0.412   0.958  0.00  0.00    -0.002 A 
ATOM      8  C6  OXE d   1       0.473   0.901   1.199  0.00  0.00     0.003 A 
ENDROOT
TORSDOF 0
ENDMDL
