MODEL 1
REMARK minimizedAffinity -5.41130972
REMARK minimizedRMSD -1
REMARK  0 active torsions:
REMARK  status: ('A' for Active; 'I' for Inactive)
ROOT
ATOM      1  C2' OXE d   1      -3.401  -0.119   1.058  0.00  0.00     0.078 C 
ATOM      2  C1' OXE d   1      -2.171  -0.300   3.575  0.00  0.00     0.078 C 
ATOM      3  C1  OXE d   1      -1.281  -0.269   2.358  0.00  0.00    -0.078 A 
ATOM      4  C2  OXE d   1      -1.893  -0.227   1.128  0.00  0.00    -0.078 A 
ATOM      5  C3  OXE d   1      -1.118  -0.142  -0.025  0.00  0.00     0.003 A 
ATOM      6  C4  OXE d   1       0.276  -0.252   0.048  0.00  0.00    -0.002 A 
ATOM      7  C5  OXE d   1       0.917  -0.335   1.288  0.00  0.00    -0.002 A 
ATOM      8  C6  OXE d   1       0.157  -0.302   2.452  0.00  0.00     0.003 A 
ENDROOT
TORSDOF 0
ENDMDL
