MODEL 1
REMARK minimizedAffinity -4.2732873
REMARK minimizedRMSD -1
REMARK  0 active torsions:
REMARK  status: ('A' for Active; 'I' for Inactive)
ROOT
ATOM      1  C   UNL d   1       0.013   1.172  -2.089  0.00  0.00     0.020 A 
ATOM      2  C1  UNL d   1      -1.064   0.653  -1.372  0.00  0.00     0.020 A 
ATOM      3  C2  UNL d   1      -2.353   1.142  -1.597  0.00  0.00     0.034 A 
ATOM      4  C3  UNL d   1      -2.567   2.153  -2.541  0.00  0.00     0.017 A 
ATOM      5  C4  UNL d   1      -1.485   2.673  -3.261  0.00  0.00     0.017 A 
ATOM      6  C5  UNL d   1      -0.197   2.180  -3.031  0.00  0.00     0.034 A 
ATOM      7 Cl   UNL d   1      -1.671   3.921  -4.442  0.00  0.00    -0.070 Cl
ATOM      8 Cl1  UNL d   1      -4.187   2.710  -2.769  0.00  0.00    -0.070 Cl
ENDROOT
TORSDOF 0
ENDMDL
