MODEL 1
REMARK minimizedAffinity -4.6136694
REMARK minimizedRMSD -1
REMARK  0 active torsions:
REMARK  status: ('A' for Active; 'I' for Inactive)
ROOT
ATOM      1  C   UNL d   1       1.309  -1.286   2.136  0.00  0.00     0.020 A 
ATOM      2  C1  UNL d   1       1.982  -1.264   0.915  0.00  0.00     0.020 A 
ATOM      3  C2  UNL d   1       1.358  -0.737  -0.218  0.00  0.00     0.034 A 
ATOM      4  C3  UNL d   1       0.056  -0.230  -0.132  0.00  0.00     0.017 A 
ATOM      5  C4  UNL d   1      -0.619  -0.252   1.094  0.00  0.00     0.017 A 
ATOM      6  C5  UNL d   1       0.011  -0.781   2.225  0.00  0.00     0.034 A 
ATOM      7 Cl   UNL d   1      -2.227   0.356   1.278  0.00  0.00    -0.070 Cl
ATOM      8 Cl1  UNL d   1      -0.655   0.407  -1.572  0.00  0.00    -0.070 Cl
ENDROOT
TORSDOF 0
ENDMDL
