MODEL 1
REMARK minimizedAffinity -1.55010569
REMARK minimizedRMSD -1
REMARK  0 active torsions:
REMARK  status: ('A' for Active; 'I' for Inactive)
ROOT
ATOM      1  C   UNL d   1      -1.122  -0.234   1.683  0.00  0.00     0.020 A 
ATOM      2  C1  UNL d   1      -0.192  -1.019   2.363  0.00  0.00     0.020 A 
ATOM      3  C2  UNL d   1       0.952  -1.475   1.704  0.00  0.00     0.034 A 
ATOM      4  C3  UNL d   1       1.168  -1.145   0.361  0.00  0.00     0.017 A 
ATOM      5  C4  UNL d   1       0.234  -0.357  -0.321  0.00  0.00     0.017 A 
ATOM      6  C5  UNL d   1      -0.909   0.097   0.344  0.00  0.00     0.034 A 
ATOM      7 Cl   UNL d   1       0.432   0.091  -1.978  0.00  0.00    -0.070 Cl
ATOM      8 Cl1  UNL d   1       2.605  -1.743  -0.392  0.00  0.00    -0.070 Cl
ENDROOT
TORSDOF 0
ENDMDL
