MODEL 1
REMARK minimizedAffinity 7.66365719
REMARK minimizedRMSD -1
REMARK  0 active torsions:
REMARK  status: ('A' for Active; 'I' for Inactive)
ROOT
ATOM      1  C   UNL d   1      -2.073   3.360  -3.062  0.00  0.00     0.020 A 
ATOM      2  C1  UNL d   1      -1.448   4.318  -3.859  0.00  0.00     0.020 A 
ATOM      3  C2  UNL d   1      -0.079   4.226  -4.117  0.00  0.00     0.034 A 
ATOM      4  C3  UNL d   1       0.670   3.173  -3.578  0.00  0.00     0.017 A 
ATOM      5  C4  UNL d   1       0.041   2.212  -2.778  0.00  0.00     0.017 A 
ATOM      6  C5  UNL d   1      -1.330   2.309  -2.523  0.00  0.00     0.034 A 
ATOM      7 Cl   UNL d   1       0.899   0.884  -2.078  0.00  0.00    -0.070 Cl
ATOM      8 Cl1  UNL d   1       2.359   3.121  -3.939  0.00  0.00    -0.070 Cl
ENDROOT
TORSDOF 0
ENDMDL
