MODEL 1
REMARK minimizedAffinity 10.2968168
REMARK minimizedRMSD -1
REMARK  0 active torsions:
REMARK  status: ('A' for Active; 'I' for Inactive)
ROOT
ATOM      1  C   UNL d   1      -4.962   4.648  -3.794  0.00  0.00     0.020 A 
ATOM      2  C1  UNL d   1      -5.893   4.054  -4.646  0.00  0.00     0.020 A 
ATOM      3  C2  UNL d   1      -5.817   2.686  -4.917  0.00  0.00     0.034 A 
ATOM      4  C3  UNL d   1      -4.808   1.908  -4.338  0.00  0.00     0.017 A 
ATOM      5  C4  UNL d   1      -3.874   2.506  -3.483  0.00  0.00     0.017 A 
ATOM      6  C5  UNL d   1      -3.955   3.875  -3.214  0.00  0.00     0.034 A 
ATOM      7 Cl   UNL d   1      -2.602   1.611  -2.731  0.00  0.00    -0.070 Cl
ATOM      8 Cl1  UNL d   1      -4.775   0.223  -4.718  0.00  0.00    -0.070 Cl
ENDROOT
TORSDOF 0
ENDMDL
