MODEL 1
REMARK minimizedAffinity -4.05901384
REMARK minimizedRMSD -1
REMARK  0 active torsions:
REMARK  status: ('A' for Active; 'I' for Inactive)
ROOT
ATOM      1  C   UNL d   1      -1.249   1.075  -1.685  0.00  0.00     0.020 A 
ATOM      2  C1  UNL d   1       0.033   0.648  -1.342  0.00  0.00     0.020 A 
ATOM      3  C2  UNL d   1       0.273   0.101  -0.080  0.00  0.00     0.034 A 
ATOM      4  C3  UNL d   1      -0.771  -0.021   0.845  0.00  0.00     0.017 A 
ATOM      5  C4  UNL d   1      -2.058   0.408   0.500  0.00  0.00     0.017 A 
ATOM      6  C5  UNL d   1      -2.292   0.955  -0.766  0.00  0.00     0.034 A 
ATOM      7 Cl   UNL d   1      -3.396   0.291   1.587  0.00  0.00    -0.070 Cl
ATOM      8 Cl1  UNL d   1      -0.403  -0.707   2.387  0.00  0.00    -0.070 Cl
ENDROOT
TORSDOF 0
ENDMDL
