MODEL 1
REMARK minimizedAffinity -1.78140426
REMARK minimizedRMSD -1
REMARK  0 active torsions:
REMARK  status: ('A' for Active; 'I' for Inactive)
ROOT
ATOM      1  C   UNL d   1      -1.195   0.103  -1.010  0.00  0.00     0.020 A 
ATOM      2  C1  UNL d   1      -1.682   0.171   0.295  0.00  0.00     0.020 A 
ATOM      3  C2  UNL d   1      -0.959  -0.407   1.341  0.00  0.00     0.034 A 
ATOM      4  C3  UNL d   1       0.254  -1.056   1.083  0.00  0.00     0.017 A 
ATOM      5  C4  UNL d   1       0.742  -1.123  -0.227  0.00  0.00     0.017 A 
ATOM      6  C5  UNL d   1       0.014  -0.543  -1.270  0.00  0.00     0.034 A 
ATOM      7 Cl   UNL d   1       2.231  -1.907  -0.622  0.00  0.00    -0.070 Cl
ATOM      8 Cl1  UNL d   1       1.095  -1.748   2.425  0.00  0.00    -0.070 Cl
ENDROOT
TORSDOF 0
ENDMDL
