MODEL 1
REMARK minimizedAffinity 0.092837289
REMARK minimizedRMSD -1
REMARK  0 active torsions:
REMARK  status: ('A' for Active; 'I' for Inactive)
ROOT
ATOM      1  C   UNL d   1      -2.501   3.964  -2.695  0.00  0.00     0.020 A 
ATOM      2  C1  UNL d   1      -3.176   2.855  -2.188  0.00  0.00     0.020 A 
ATOM      3  C2  UNL d   1      -2.494   1.652  -1.991  0.00  0.00     0.034 A 
ATOM      4  C3  UNL d   1      -1.132   1.557  -2.301  0.00  0.00     0.017 A 
ATOM      5  C4  UNL d   1      -0.455   2.671  -2.809  0.00  0.00     0.017 A 
ATOM      6  C5  UNL d   1      -1.143   3.873  -3.004  0.00  0.00     0.034 A 
ATOM      7 Cl   UNL d   1       1.225   2.630  -3.213  0.00  0.00    -0.070 Cl
ATOM      8 Cl1  UNL d   1      -0.352   0.039  -2.031  0.00  0.00    -0.070 Cl
ENDROOT
TORSDOF 0
ENDMDL
