MODEL 1
REMARK minimizedAffinity -0.259953648
REMARK minimizedRMSD -1
REMARK  0 active torsions:
REMARK  status: ('A' for Active; 'I' for Inactive)
ROOT
ATOM      1  C   UNL d   1      -0.977   0.726   0.521  0.00  0.00     0.020 A 
ATOM      2  C1  UNL d   1      -1.231   0.475   1.869  0.00  0.00     0.020 A 
ATOM      3  C2  UNL d   1      -0.435  -0.431   2.572  0.00  0.00     0.034 A 
ATOM      4  C3  UNL d   1       0.619  -1.090   1.929  0.00  0.00     0.017 A 
ATOM      5  C4  UNL d   1       0.873  -0.837   0.576  0.00  0.00     0.017 A 
ATOM      6  C5  UNL d   1       0.072   0.072  -0.124  0.00  0.00     0.034 A 
ATOM      7 Cl   UNL d   1       2.155  -1.611  -0.287  0.00  0.00    -0.070 Cl
ATOM      8 Cl1  UNL d   1       1.563  -2.197   2.860  0.00  0.00    -0.070 Cl
ENDROOT
TORSDOF 0
ENDMDL
