MODEL 1
REMARK minimizedAffinity -2.79299068
REMARK minimizedRMSD -1
REMARK  0 active torsions:
REMARK  status: ('A' for Active; 'I' for Inactive)
ROOT
ATOM      1  C   UNL d   1      -0.412  -0.879   2.722  0.00  0.00     0.020 A 
ATOM      2  C1  UNL d   1       0.527  -1.901   2.855  0.00  0.00     0.020 A 
ATOM      3  C2  UNL d   1       1.338  -2.250   1.773  0.00  0.00     0.034 A 
ATOM      4  C3  UNL d   1       1.210  -1.577   0.552  0.00  0.00     0.017 A 
ATOM      5  C4  UNL d   1       0.267  -0.551   0.419  0.00  0.00     0.017 A 
ATOM      6  C5  UNL d   1      -0.542  -0.206   1.506  0.00  0.00     0.034 A 
ATOM      7 Cl   UNL d   1       0.052   0.325  -1.055  0.00  0.00    -0.070 Cl
ATOM      8 Cl1  UNL d   1       2.246  -2.060  -0.744  0.00  0.00    -0.070 Cl
ENDROOT
TORSDOF 0
ENDMDL
