MODEL 1
REMARK minimizedAffinity -1.43153596
REMARK minimizedRMSD -1
REMARK  1 active torsions:
REMARK  status: ('A' for Active; 'I' for Inactive)
REMARK    1  A    between atoms: C1_2  and  C2_3 
ROOT
ATOM      1  C2  UNL d   1       2.552  -3.297   3.171  0.00  0.00    -0.073 A 
ATOM      2  C3  UNL d   1       2.848  -4.490   2.503  0.00  0.00    -0.002 A 
ATOM      3  C4  UNL d   1       3.977  -5.233   2.852  0.00  0.00     0.004 A 
ATOM      4  C5  UNL d   1       4.816  -4.795   3.876  0.00  0.00    -0.004 A 
ATOM      5  C6  UNL d   1       4.531  -3.611   4.564  0.00  0.00    -0.075 A 
ATOM      6  C7  UNL d   1       5.425  -3.124   5.666  0.00  0.00     0.076 C 
ATOM      7  C8  UNL d   1       3.397  -2.869   4.205  0.00  0.00     0.001 A 
ENDROOT
BRANCH   1   8
ATOM      8  C1  UNL d   1       1.331  -2.495   2.801  0.00  0.00     0.053 C 
ATOM      9  C   UNL d   1       0.044  -3.226   3.146  0.00  0.00     0.018 C 
ENDBRANCH   1   8
TORSDOF 1
ENDMDL
