MODEL 1
REMARK minimizedAffinity 2.2010653
REMARK minimizedRMSD -1
REMARK  1 active torsions:
REMARK  status: ('A' for Active; 'I' for Inactive)
REMARK    1  A    between atoms: C1_2  and  C2_3 
ROOT
ATOM      1  C2  UNL d   1       3.065  -1.066   0.345  0.00  0.00    -0.073 A 
ATOM      2  C3  UNL d   1       4.392  -0.906   0.761  0.00  0.00    -0.002 A 
ATOM      3  C4  UNL d   1       5.065   0.293   0.524  0.00  0.00     0.004 A 
ATOM      4  C5  UNL d   1       4.419   1.346  -0.123  0.00  0.00    -0.004 A 
ATOM      5  C6  UNL d   1       3.089   1.210  -0.536  0.00  0.00    -0.075 A 
ATOM      6  C7  UNL d   1       2.380   2.332  -1.235  0.00  0.00     0.076 C 
ATOM      7  C8  UNL d   1       2.420   0.002  -0.297  0.00  0.00     0.001 A 
ENDROOT
BRANCH   1   8
ATOM      8  C1  UNL d   1       2.331  -2.356   0.604  0.00  0.00     0.053 C 
ATOM      9  C   UNL d   1       1.562  -2.321   1.914  0.00  0.00     0.018 C 
ENDBRANCH   1   8
TORSDOF 1
ENDMDL
