MODEL 1
REMARK minimizedAffinity 7.51845646
REMARK minimizedRMSD -1
REMARK  1 active torsions:
REMARK  status: ('A' for Active; 'I' for Inactive)
REMARK    1  A    between atoms: C1_2  and  C2_3 
ROOT
ATOM      1  C2  UNL d   1       4.092  -4.063   2.922  0.00  0.00    -0.073 A 
ATOM      2  C3  UNL d   1       4.267  -5.440   3.096  0.00  0.00    -0.002 A 
ATOM      3  C4  UNL d   1       4.968  -5.928   4.200  0.00  0.00     0.004 A 
ATOM      4  C5  UNL d   1       5.494  -5.045   5.143  0.00  0.00    -0.004 A 
ATOM      5  C6  UNL d   1       5.320  -3.666   4.993  0.00  0.00    -0.075 A 
ATOM      6  C7  UNL d   1       5.883  -2.703   5.997  0.00  0.00     0.076 C 
ATOM      7  C8  UNL d   1       4.618  -3.184   3.880  0.00  0.00     0.001 A 
ENDROOT
BRANCH   1   8
ATOM      8  C1  UNL d   1       3.331  -3.532   1.735  0.00  0.00     0.053 C 
ATOM      9  C   UNL d   1       1.912  -3.128   2.103  0.00  0.00     0.018 C 
ENDBRANCH   1   8
TORSDOF 1
ENDMDL
