MODEL 1
REMARK minimizedAffinity -4.16749525
REMARK minimizedRMSD -1
REMARK  1 active torsions:
REMARK  status: ('A' for Active; 'I' for Inactive)
REMARK    1  A    between atoms: C1_2  and  C2_3 
ROOT
ATOM      1  C2  UNL d   1      -2.101   5.068   4.500  0.00  0.00    -0.073 A 
ATOM      2  C3  UNL d   1      -2.924   6.000   3.858  0.00  0.00    -0.002 A 
ATOM      3  C4  UNL d   1      -4.310   5.834   3.857  0.00  0.00     0.004 A 
ATOM      4  C5  UNL d   1      -4.886   4.740   4.503  0.00  0.00    -0.004 A 
ATOM      5  C6  UNL d   1      -4.081   3.805   5.160  0.00  0.00    -0.075 A 
ATOM      6  C7  UNL d   1      -4.686   2.622   5.858  0.00  0.00     0.076 C 
ATOM      7  C8  UNL d   1      -2.690   3.977   5.154  0.00  0.00     0.001 A 
ENDROOT
BRANCH   1   8
ATOM      8  C1  UNL d   1      -0.605   5.246   4.509  0.00  0.00     0.053 C 
ATOM      9  C   UNL d   1      -0.002   5.073   3.124  0.00  0.00     0.018 C 
ENDBRANCH   1   8
TORSDOF 1
ENDMDL
