MODEL 1
REMARK minimizedAffinity 9.76602936
REMARK minimizedRMSD -1
REMARK  1 active torsions:
REMARK  status: ('A' for Active; 'I' for Inactive)
REMARK    1  A    between atoms: C1_2  and  C2_3 
ROOT
ATOM      1  C2  UNL d   1       0.000  -1.720   0.457  0.00  0.00    -0.073 A 
ATOM      2  C3  UNL d   1       1.332  -2.013   0.770  0.00  0.00    -0.002 A 
ATOM      3  C4  UNL d   1       2.357  -1.652  -0.106  0.00  0.00     0.004 A 
ATOM      4  C5  UNL d   1       2.062  -0.990  -1.298  0.00  0.00    -0.004 A 
ATOM      5  C6  UNL d   1       0.738  -0.679  -1.622  0.00  0.00    -0.075 A 
ATOM      6  C7  UNL d   1       0.404   0.031  -2.902  0.00  0.00     0.076 C 
ATOM      7  C8  UNL d   1      -0.286  -1.046  -0.739  0.00  0.00     0.001 A 
ENDROOT
BRANCH   1   8
ATOM      8  C1  UNL d   1      -1.110  -2.102   1.402  0.00  0.00     0.053 C 
ATOM      9  C   UNL d   1      -1.096  -1.258   2.667  0.00  0.00     0.018 C 
ENDBRANCH   1   8
TORSDOF 1
ENDMDL
