MODEL 1
REMARK minimizedAffinity 5.87708521
REMARK minimizedRMSD -1
REMARK  1 active torsions:
REMARK  status: ('A' for Active; 'I' for Inactive)
REMARK    1  A    between atoms: C1_2  and  C2_3 
ROOT
ATOM      1  C2  UNL d   1      -4.307   1.967  -5.119  0.00  0.00    -0.073 A 
ATOM      2  C3  UNL d   1      -5.015   3.160  -4.935  0.00  0.00    -0.002 A 
ATOM      3  C4  UNL d   1      -4.496   4.170  -4.123  0.00  0.00     0.004 A 
ATOM      4  C5  UNL d   1      -3.263   4.000  -3.494  0.00  0.00    -0.004 A 
ATOM      5  C6  UNL d   1      -2.535   2.820  -3.675  0.00  0.00    -0.075 A 
ATOM      6  C7  UNL d   1      -1.208   2.621  -3.003  0.00  0.00     0.076 C 
ATOM      7  C8  UNL d   1      -3.064   1.810  -4.490  0.00  0.00     0.001 A 
ENDROOT
BRANCH   1   8
ATOM      8  C1  UNL d   1      -4.860   0.877  -6.000  0.00  0.00     0.053 C 
ATOM      9  C   UNL d   1      -5.858  -0.001  -5.262  0.00  0.00     0.018 C 
ENDBRANCH   1   8
TORSDOF 1
ENDMDL
