MODEL 1
REMARK minimizedAffinity 10.0221081
REMARK minimizedRMSD -1
REMARK  1 active torsions:
REMARK  status: ('A' for Active; 'I' for Inactive)
REMARK    1  A    between atoms: C1_2  and  C2_3 
ROOT
ATOM      1  C2  UNL d   1      -0.185  -3.228   1.730  0.00  0.00    -0.073 A 
ATOM      2  C3  UNL d   1       1.112  -2.958   1.281  0.00  0.00    -0.002 A 
ATOM      3  C4  UNL d   1       1.701  -1.718   1.531  0.00  0.00     0.004 A 
ATOM      4  C5  UNL d   1       1.003  -0.739   2.238  0.00  0.00    -0.004 A 
ATOM      5  C6  UNL d   1      -0.290  -0.994   2.706  0.00  0.00    -0.075 A 
ATOM      6  C7  UNL d   1      -1.055   0.049   3.466  0.00  0.00     0.076 C 
ATOM      7  C8  UNL d   1      -0.876  -2.241   2.448  0.00  0.00     0.001 A 
ENDROOT
BRANCH   1   8
ATOM      8  C1  UNL d   1      -0.823  -4.568   1.468  0.00  0.00     0.053 C 
ATOM      9  C   UNL d   1       0.206  -5.630   1.115  0.00  0.00     0.018 C 
ENDBRANCH   1   8
TORSDOF 1
ENDMDL
