MODEL 1
REMARK minimizedAffinity 14.2797031
REMARK minimizedRMSD -1
REMARK  1 active torsions:
REMARK  status: ('A' for Active; 'I' for Inactive)
REMARK    1  A    between atoms: C1_2  and  C2_3 
ROOT
ATOM      1  C2  UNL d   1      -1.898   0.065   2.802  0.00  0.00    -0.073 A 
ATOM      2  C3  UNL d   1      -2.601  -0.928   2.112  0.00  0.00    -0.002 A 
ATOM      3  C4  UNL d   1      -1.920  -1.997   1.527  0.00  0.00     0.004 A 
ATOM      4  C5  UNL d   1      -0.533  -2.087   1.633  0.00  0.00    -0.004 A 
ATOM      5  C6  UNL d   1       0.187  -1.111   2.329  0.00  0.00    -0.075 A 
ATOM      6  C7  UNL d   1       1.680  -1.192   2.449  0.00  0.00     0.076 C 
ATOM      7  C8  UNL d   1      -0.504  -0.039   2.911  0.00  0.00     0.001 A 
ENDROOT
BRANCH   1   8
ATOM      8  C1  UNL d   1      -2.629   1.218   3.440  0.00  0.00     0.053 C 
ATOM      9  C   UNL d   1      -3.985   1.459   2.797  0.00  0.00     0.018 C 
ENDBRANCH   1   8
TORSDOF 1
ENDMDL
