MODEL 1
REMARK minimizedAffinity 12.8982096
REMARK minimizedRMSD -1
REMARK  1 active torsions:
REMARK  status: ('A' for Active; 'I' for Inactive)
REMARK    1  A    between atoms: C1_2  and  C2_3 
ROOT
ATOM      1  C2  UNL d   1       4.155  -2.004   0.178  0.00  0.00    -0.073 A 
ATOM      2  C3  UNL d   1       3.883  -1.428   1.424  0.00  0.00    -0.002 A 
ATOM      3  C4  UNL d   1       2.565  -1.263   1.851  0.00  0.00     0.004 A 
ATOM      4  C5  UNL d   1       1.508  -1.677   1.042  0.00  0.00    -0.004 A 
ATOM      5  C6  UNL d   1       1.759  -2.266  -0.201  0.00  0.00    -0.075 A 
ATOM      6  C7  UNL d   1       0.633  -2.715  -1.085  0.00  0.00     0.076 C 
ATOM      7  C8  UNL d   1       3.086  -2.426  -0.625  0.00  0.00     0.001 A 
ENDROOT
BRANCH   1   8
ATOM      8  C1  UNL d   1       5.577  -2.191  -0.285  0.00  0.00     0.053 C 
ATOM      9  C   UNL d   1       5.988  -1.139  -1.304  0.00  0.00     0.018 C 
ENDBRANCH   1   8
TORSDOF 1
ENDMDL
