MODEL 1
REMARK minimizedAffinity 0.847431839
REMARK minimizedRMSD -1
REMARK  0 active torsions:
REMARK  status: ('A' for Active; 'I' for Inactive)
ROOT
ATOM      1  C   UNL d   1      -4.355  -4.808  -6.000  0.00  0.00     0.172 C 
ATOM      2  N   UNL d   1      -4.925  -3.728  -5.229  0.00  0.00    -0.070 N 
ATOM      3  C1  UNL d   1      -4.862  -3.600  -3.867  0.00  0.00    -0.004 A 
ATOM      4  C2  UNL d   1      -5.523  -2.440  -3.522  0.00  0.00    -0.047 A 
ATOM      5  C3  UNL d   1      -6.000  -1.852  -4.717  0.00  0.00    -0.047 A 
ATOM      6  C4  UNL d   1      -5.616  -2.670  -5.759  0.00  0.00    -0.004 A 
ENDROOT
TORSDOF 0
ENDMDL
