MODEL 1
REMARK minimizedAffinity -0.323616654
REMARK minimizedRMSD -1
REMARK  0 active torsions:
REMARK  status: ('A' for Active; 'I' for Inactive)
ROOT
ATOM      1  C   UNL d   1      -4.071  -5.927  -6.000  0.00  0.00     0.172 C 
ATOM      2  N   UNL d   1      -4.647  -4.693  -5.521  0.00  0.00    -0.070 N 
ATOM      3  C1  UNL d   1      -5.660  -4.586  -4.605  0.00  0.00    -0.004 A 
ATOM      4  C2  UNL d   1      -5.919  -3.246  -4.416  0.00  0.00    -0.047 A 
ATOM      5  C3  UNL d   1      -5.032  -2.522  -5.248  0.00  0.00    -0.047 A 
ATOM      6  C4  UNL d   1      -4.256  -3.442  -5.920  0.00  0.00    -0.004 A 
ENDROOT
TORSDOF 0
ENDMDL
