MODEL 1
REMARK minimizedAffinity 11.7110968
REMARK minimizedRMSD -1
REMARK  0 active torsions:
REMARK  status: ('A' for Active; 'I' for Inactive)
ROOT
ATOM      1  C   UNL d   1      -1.269  -0.114   2.022  0.00  0.00     0.172 C 
ATOM      2  N   UNL d   1      -0.467   1.038   2.360  0.00  0.00    -0.070 N 
ATOM      3  C1  UNL d   1       0.543   1.065   3.284  0.00  0.00    -0.004 A 
ATOM      4  C2  UNL d   1       1.056   2.344   3.311  0.00  0.00    -0.047 A 
ATOM      5  C3  UNL d   1       0.328   3.112   2.372  0.00  0.00    -0.047 A 
ATOM      6  C4  UNL d   1      -0.609   2.279   1.798  0.00  0.00    -0.004 A 
ENDROOT
TORSDOF 0
ENDMDL
