MODEL 1
REMARK minimizedAffinity -1.76080656
REMARK minimizedRMSD -1
REMARK  0 active torsions:
REMARK  status: ('A' for Active; 'I' for Inactive)
ROOT
ATOM      1  C   UNL d   1      -5.985  -2.661  -3.744  0.00  0.00     0.172 C 
ATOM      2  N   UNL d   1      -5.508  -3.770  -4.536  0.00  0.00    -0.070 N 
ATOM      3  C1  UNL d   1      -5.998  -5.048  -4.498  0.00  0.00    -0.004 A 
ATOM      4  C2  UNL d   1      -5.279  -5.803  -5.399  0.00  0.00    -0.047 A 
ATOM      5  C3  UNL d   1      -4.324  -4.949  -6.000  0.00  0.00    -0.047 A 
ATOM      6  C4  UNL d   1      -4.488  -3.697  -5.447  0.00  0.00    -0.004 A 
ENDROOT
TORSDOF 0
ENDMDL
