MODEL 1
REMARK minimizedAffinity 9.10507107
REMARK minimizedRMSD -1
REMARK  0 active torsions:
REMARK  status: ('A' for Active; 'I' for Inactive)
ROOT
ATOM      1  C   UNL d   1       1.798   1.574  -1.965  0.00  0.00     0.172 C 
ATOM      2  N   UNL d   1       1.779   0.623  -3.052  0.00  0.00    -0.070 N 
ATOM      3  C1  UNL d   1       1.444  -0.700  -2.950  0.00  0.00    -0.004 A 
ATOM      4  C2  UNL d   1       1.550  -1.261  -4.205  0.00  0.00    -0.047 A 
ATOM      5  C3  UNL d   1       1.964  -0.239  -5.091  0.00  0.00    -0.047 A 
ATOM      6  C4  UNL d   1       2.099   0.917  -4.351  0.00  0.00    -0.004 A 
ENDROOT
TORSDOF 0
ENDMDL
