MODEL 1
REMARK minimizedAffinity 6.77599382
REMARK minimizedRMSD -1
REMARK  0 active torsions:
REMARK  status: ('A' for Active; 'I' for Inactive)
ROOT
ATOM      1  C   UNL d   1       1.316   3.116  -2.213  0.00  0.00     0.172 C 
ATOM      2  N   UNL d   1       1.974   3.842  -3.274  0.00  0.00    -0.070 N 
ATOM      3  C1  UNL d   1       1.714   5.137  -3.635  0.00  0.00    -0.004 A 
ATOM      4  C2  UNL d   1       2.548   5.458  -4.684  0.00  0.00    -0.047 A 
ATOM      5  C3  UNL d   1       3.335   4.315  -4.964  0.00  0.00    -0.047 A 
ATOM      6  C4  UNL d   1       2.959   3.330  -4.076  0.00  0.00    -0.004 A 
ENDROOT
TORSDOF 0
ENDMDL
