MODEL 1
REMARK minimizedAffinity -0.975840271
REMARK minimizedRMSD -1
REMARK  0 active torsions:
REMARK  status: ('A' for Active; 'I' for Inactive)
ROOT
ATOM      1  C   UNL d   1      -4.082  -5.919   0.002  0.00  0.00     0.172 C 
ATOM      2  N   UNL d   1      -4.788  -4.711   0.361  0.00  0.00    -0.070 N 
ATOM      3  C1  UNL d   1      -5.469  -4.502   1.530  0.00  0.00    -0.004 A 
ATOM      4  C2  UNL d   1      -6.000  -3.231   1.488  0.00  0.00    -0.047 A 
ATOM      5  C3  UNL d   1      -5.627  -2.657   0.249  0.00  0.00    -0.047 A 
ATOM      6  C4  UNL d   1      -4.877  -3.595  -0.429  0.00  0.00    -0.004 A 
ENDROOT
TORSDOF 0
ENDMDL
