MODEL 1
REMARK minimizedAffinity 7.68711233
REMARK minimizedRMSD -1
REMARK  0 active torsions:
REMARK  status: ('A' for Active; 'I' for Inactive)
ROOT
ATOM      1  C   UNL d   1       3.163   1.629  -3.939  0.00  0.00     0.172 C 
ATOM      2  N   UNL d   1       2.367   0.554  -4.482  0.00  0.00    -0.070 N 
ATOM      3  C1  UNL d   1       1.297   0.700  -5.325  0.00  0.00    -0.004 A 
ATOM      4  C2  UNL d   1       0.812  -0.557  -5.613  0.00  0.00    -0.047 A 
ATOM      5  C3  UNL d   1       1.618  -1.491  -4.918  0.00  0.00    -0.047 A 
ATOM      6  C4  UNL d   1       2.572  -0.776  -4.226  0.00  0.00    -0.004 A 
ENDROOT
TORSDOF 0
ENDMDL
