MODEL 1
REMARK minimizedAffinity -0.175254524
REMARK minimizedRMSD -1
REMARK  0 active torsions:
REMARK  status: ('A' for Active; 'I' for Inactive)
ROOT
ATOM      1  C   UNL d   1      -2.401  -4.711  -5.999  0.00  0.00     0.172 C 
ATOM      2  N   UNL d   1      -3.835  -4.817  -5.878  0.00  0.00    -0.070 N 
ATOM      3  C1  UNL d   1      -4.695  -3.781  -5.625  0.00  0.00    -0.004 A 
ATOM      4  C2  UNL d   1      -5.973  -4.294  -5.586  0.00  0.00    -0.047 A 
ATOM      5  C3  UNL d   1      -5.880  -5.686  -5.823  0.00  0.00    -0.047 A 
ATOM      6  C4  UNL d   1      -4.545  -5.983  -6.000  0.00  0.00    -0.004 A 
ENDROOT
TORSDOF 0
ENDMDL
