MODEL 1
REMARK minimizedAffinity 2.58953381
REMARK minimizedRMSD -1
REMARK  0 active torsions:
REMARK  status: ('A' for Active; 'I' for Inactive)
ROOT
ATOM      1  C   UNL d   1       1.593  -6.000   4.864  0.00  0.00     0.172 C 
ATOM      2  N   UNL d   1       1.917  -5.675   3.495  0.00  0.00    -0.070 N 
ATOM      3  C1  UNL d   1       3.082  -6.000   2.852  0.00  0.00    -0.004 A 
ATOM      4  C2  UNL d   1       3.002  -5.514   1.564  0.00  0.00    -0.047 A 
ATOM      5  C3  UNL d   1       1.746  -4.875   1.429  0.00  0.00    -0.047 A 
ATOM      6  C4  UNL d   1       1.095  -4.990   2.639  0.00  0.00    -0.004 A 
ENDROOT
TORSDOF 0
ENDMDL
