MODEL 1
REMARK minimizedAffinity 1.70286429
REMARK minimizedRMSD -1
REMARK  0 active torsions:
REMARK  status: ('A' for Active; 'I' for Inactive)
ROOT
ATOM      1  C   UNL d   1      -4.801  -1.243   0.398  0.00  0.00     0.172 C 
ATOM      2  N   UNL d   1      -3.838  -0.247   0.806  0.00  0.00    -0.070 N 
ATOM      3  C1  UNL d   1      -4.083   1.093   0.941  0.00  0.00    -0.004 A 
ATOM      4  C2  UNL d   1      -2.913   1.697   1.347  0.00  0.00    -0.047 A 
ATOM      5  C3  UNL d   1      -1.930   0.685   1.459  0.00  0.00    -0.047 A 
ATOM      6  C4  UNL d   1      -2.530  -0.509   1.118  0.00  0.00    -0.004 A 
ENDROOT
TORSDOF 0
ENDMDL
