MODEL 1
REMARK minimizedAffinity 5.91664696
REMARK minimizedRMSD -1
REMARK  0 active torsions:
REMARK  status: ('A' for Active; 'I' for Inactive)
ROOT
ATOM      1  C   UNL d   1      -4.474   3.385   3.048  0.00  0.00     0.172 C 
ATOM      2  N   UNL d   1      -4.813   4.121   4.243  0.00  0.00    -0.070 N 
ATOM      3  C1  UNL d   1      -4.008   5.031   4.876  0.00  0.00    -0.004 A 
ATOM      4  C2  UNL d   1      -4.692   5.510   5.972  0.00  0.00    -0.047 A 
ATOM      5  C3  UNL d   1      -5.952   4.865   6.000  0.00  0.00    -0.047 A 
ATOM      6  C4  UNL d   1      -6.000   4.011   4.918  0.00  0.00    -0.004 A 
ENDROOT
TORSDOF 0
ENDMDL
