MODEL 1
REMARK minimizedAffinity 5.53553057
REMARK minimizedRMSD -1
REMARK  0 active torsions:
REMARK  status: ('A' for Active; 'I' for Inactive)
ROOT
ATOM      1  C   UNL d   1       0.162   1.742   2.747  0.00  0.00     0.172 C 
ATOM      2  N   UNL d   1      -0.948   0.905   2.357  0.00  0.00    -0.070 N 
ATOM      3  C1  UNL d   1      -2.061   1.321   1.676  0.00  0.00    -0.004 A 
ATOM      4  C2  UNL d   1      -2.880   0.227   1.498  0.00  0.00    -0.047 A 
ATOM      5  C3  UNL d   1      -2.238  -0.885   2.093  0.00  0.00    -0.047 A 
ATOM      6  C4  UNL d   1      -1.043  -0.437   2.617  0.00  0.00    -0.004 A 
ENDROOT
TORSDOF 0
ENDMDL
