MODEL 1
REMARK minimizedAffinity 7.36654806
REMARK minimizedRMSD -1
REMARK  0 active torsions:
REMARK  status: ('A' for Active; 'I' for Inactive)
ROOT
ATOM      1  C   UNL d   1      -2.871   3.033   2.343  0.00  0.00     0.172 C 
ATOM      2  N   UNL d   1      -2.680   1.687   1.856  0.00  0.00    -0.070 N 
ATOM      3  C1  UNL d   1      -3.171   1.186   0.680  0.00  0.00    -0.004 A 
ATOM      4  C2  UNL d   1      -2.770  -0.129   0.581  0.00  0.00    -0.047 A 
ATOM      5  C3  UNL d   1      -2.012  -0.429   1.738  0.00  0.00    -0.047 A 
ATOM      6  C4  UNL d   1      -1.972   0.713   2.510  0.00  0.00    -0.004 A 
ENDROOT
TORSDOF 0
ENDMDL
