MODEL 1
REMARK minimizedAffinity 7.55890465
REMARK minimizedRMSD -1
REMARK  0 active torsions:
REMARK  status: ('A' for Active; 'I' for Inactive)
ROOT
ATOM      1  C   UNL d   1       1.910   3.130  -1.483  0.00  0.00     0.172 C 
ATOM      2  N   UNL d   1       2.536   3.889  -2.539  0.00  0.00    -0.070 N 
ATOM      3  C1  UNL d   1       2.260   5.192  -2.858  0.00  0.00    -0.004 A 
ATOM      4  C2  UNL d   1       3.065   5.548  -3.918  0.00  0.00    -0.047 A 
ATOM      5  C3  UNL d   1       3.853   4.419  -4.249  0.00  0.00    -0.047 A 
ATOM      6  C4  UNL d   1       3.505   3.407  -3.380  0.00  0.00    -0.004 A 
ENDROOT
TORSDOF 0
ENDMDL
