MODEL 1
REMARK minimizedAffinity 0.682048559
REMARK minimizedRMSD -1
REMARK  0 active torsions:
REMARK  status: ('A' for Active; 'I' for Inactive)
ROOT
ATOM      1  C   UNL d   1      -4.751  -2.141   0.216  0.00  0.00     0.172 C 
ATOM      2  N   UNL d   1      -3.795  -1.103   0.521  0.00  0.00    -0.070 N 
ATOM      3  C1  UNL d   1      -4.044   0.243   0.499  0.00  0.00    -0.004 A 
ATOM      4  C2  UNL d   1      -2.881   0.894   0.849  0.00  0.00    -0.047 A 
ATOM      5  C3  UNL d   1      -1.898  -0.096   1.089  0.00  0.00    -0.047 A 
ATOM      6  C4  UNL d   1      -2.491  -1.323   0.879  0.00  0.00    -0.004 A 
ENDROOT
TORSDOF 0
ENDMDL
