MODEL 1
REMARK minimizedAffinity 6.04977274
REMARK minimizedRMSD -1
REMARK  0 active torsions:
REMARK  status: ('A' for Active; 'I' for Inactive)
ROOT
ATOM      1  C   UNL d   1       2.432  -0.648   3.036  0.00  0.00     0.172 C 
ATOM      2  N   UNL d   1       3.818  -0.616   2.635  0.00  0.00    -0.070 N 
ATOM      3  C1  UNL d   1       4.830  -1.345   3.202  0.00  0.00    -0.004 A 
ATOM      4  C2  UNL d   1       5.997  -1.033   2.538  0.00  0.00    -0.047 A 
ATOM      5  C3  UNL d   1       5.676  -0.085   1.539  0.00  0.00    -0.047 A 
ATOM      6  C4  UNL d   1       4.321   0.156   1.621  0.00  0.00    -0.004 A 
ENDROOT
TORSDOF 0
ENDMDL
