MODEL 1
REMARK minimizedAffinity 2.69682217
REMARK minimizedRMSD -1
REMARK  3 active torsions:
REMARK  status: ('A' for Active; 'I' for Inactive)
REMARK    1  A    between atoms: C3'_2  and  C2'_3 
REMARK    2  A    between atoms: C2'_3  and  C1'_4 
REMARK    3  A    between atoms: C1'_4  and  C1_5 
ROOT
ATOM      1  C1  N4B d   1       5.746   2.257  -3.358  0.00  0.00    -0.075 A 
ATOM      2  C2  N4B d   1       5.930   3.619  -3.680  0.00  0.00     0.002 A 
ATOM      3  C3  N4B d   1       6.000   4.010  -4.995  0.00  0.00     0.002 A 
ATOM      4  C4  N4B d   1       5.907   3.058  -5.999  0.00  0.00    -0.004 A 
ATOM      5  C5  N4B d   1       5.704   1.748  -5.680  0.00  0.00     0.002 A 
ATOM      6  C6  N4B d   1       5.628   1.341  -4.363  0.00  0.00     0.002 A 
ENDROOT
BRANCH   1   7
ATOM      7  C1' N4B d   1       5.749   1.770  -1.934  0.00  0.00     0.057 C 
BRANCH   7   8
ATOM      8  C2' N4B d   1       4.439   2.172  -1.264  0.00  0.00     0.009 C 
BRANCH   8   9
ATOM      9  C3' N4B d   1       3.938   1.103  -0.308  0.00  0.00     0.004 C 
ATOM     10  C4' N4B d   1       2.959   1.634   0.696  0.00  0.00     0.003 C 
ENDBRANCH   8   9
ENDBRANCH   7   8
ENDBRANCH   1   7
TORSDOF 3
ENDMDL
