MODEL 1
REMARK minimizedAffinity 0.521475196
REMARK minimizedRMSD -1
REMARK  3 active torsions:
REMARK  status: ('A' for Active; 'I' for Inactive)
REMARK    1  A    between atoms: C3'_2  and  C2'_3 
REMARK    2  A    between atoms: C2'_3  and  C1'_4 
REMARK    3  A    between atoms: C1'_4  and  C1_5 
ROOT
ATOM      1  C1  N4B d   1      -1.591  -2.992  -3.419  0.00  0.00    -0.075 A 
ATOM      2  C2  N4B d   1      -1.019  -2.315  -4.518  0.00  0.00     0.002 A 
ATOM      3  C3  N4B d   1      -1.473  -2.566  -5.790  0.00  0.00     0.002 A 
ATOM      4  C4  N4B d   1      -2.480  -3.499  -5.988  0.00  0.00    -0.004 A 
ATOM      5  C5  N4B d   1      -3.044  -4.129  -4.918  0.00  0.00     0.002 A 
ATOM      6  C6  N4B d   1      -2.601  -3.884  -3.634  0.00  0.00     0.002 A 
ENDROOT
BRANCH   1   7
ATOM      7  C1' N4B d   1      -1.069  -2.815  -2.019  0.00  0.00     0.057 C 
BRANCH   7   8
ATOM      8  C2' N4B d   1      -1.403  -1.407  -1.535  0.00  0.00     0.009 C 
BRANCH   8   9
ATOM      9  C3' N4B d   1      -2.112  -1.421  -0.192  0.00  0.00     0.004 C 
ATOM     10  C4' N4B d   1      -1.219  -1.855   0.932  0.00  0.00     0.003 C 
ENDBRANCH   8   9
ENDBRANCH   7   8
ENDBRANCH   1   7
TORSDOF 3
ENDMDL
