MODEL 1
REMARK minimizedAffinity 4.13347101
REMARK minimizedRMSD -1
REMARK  3 active torsions:
REMARK  status: ('A' for Active; 'I' for Inactive)
REMARK    1  A    between atoms: C3'_2  and  C2'_3 
REMARK    2  A    between atoms: C2'_3  and  C1'_4 
REMARK    3  A    between atoms: C1'_4  and  C1_5 
ROOT
ATOM      1  C1  N4B d   1      -1.509  -3.031  -2.187  0.00  0.00    -0.075 A 
ATOM      2  C2  N4B d   1      -2.053  -1.873  -1.589  0.00  0.00     0.002 A 
ATOM      3  C3  N4B d   1      -1.657  -1.500  -0.328  0.00  0.00     0.002 A 
ATOM      4  C4  N4B d   1      -0.737  -2.277   0.359  0.00  0.00    -0.004 A 
ATOM      5  C5  N4B d   1      -0.196  -3.380  -0.235  0.00  0.00     0.002 A 
ATOM      6  C6  N4B d   1      -0.582  -3.764  -1.503  0.00  0.00     0.002 A 
ENDROOT
BRANCH   1   7
ATOM      7  C1' N4B d   1      -1.974  -3.526  -3.529  0.00  0.00     0.057 C 
BRANCH   7   8
ATOM      8  C2' N4B d   1      -1.408  -2.623  -4.620  0.00  0.00     0.009 C 
BRANCH   8   9
ATOM      9  C3' N4B d   1      -1.912  -3.012  -5.999  0.00  0.00     0.004 C 
ATOM     10  C4' N4B d   1      -3.362  -3.395  -6.000  0.00  0.00     0.003 C 
ENDBRANCH   8   9
ENDBRANCH   7   8
ENDBRANCH   1   7
TORSDOF 3
ENDMDL
