MODEL 1
REMARK minimizedAffinity 13.928462
REMARK minimizedRMSD -1
REMARK  3 active torsions:
REMARK  status: ('A' for Active; 'I' for Inactive)
REMARK    1  A    between atoms: C3'_2  and  C2'_3 
REMARK    2  A    between atoms: C2'_3  and  C1'_4 
REMARK    3  A    between atoms: C1'_4  and  C1_5 
ROOT
ATOM      1  C1  N4B d   1       0.298   2.625   2.212  0.00  0.00    -0.075 A 
ATOM      2  C2  N4B d   1       0.477   1.320   2.719  0.00  0.00     0.002 A 
ATOM      3  C3  N4B d   1       1.593   0.596   2.374  0.00  0.00     0.002 A 
ATOM      4  C4  N4B d   1       2.529   1.148   1.513  0.00  0.00    -0.004 A 
ATOM      5  C5  N4B d   1       2.361   2.420   1.047  0.00  0.00     0.002 A 
ATOM      6  C6  N4B d   1       1.247   3.160   1.389  0.00  0.00     0.002 A 
ENDROOT
BRANCH   1   7
ATOM      7  C1' N4B d   1      -0.947   3.422   2.492  0.00  0.00     0.057 C 
BRANCH   7   8
ATOM      8  C2' N4B d   1      -1.075   4.533   1.454  0.00  0.00     0.009 C 
BRANCH   8   9
ATOM      9  C3' N4B d   1      -2.463   4.578   0.838  0.00  0.00     0.004 C 
ATOM     10  C4' N4B d   1      -2.499   5.328  -0.460  0.00  0.00     0.003 C 
ENDBRANCH   8   9
ENDBRANCH   7   8
ENDBRANCH   1   7
TORSDOF 3
ENDMDL
