MODEL 1
REMARK minimizedAffinity 8.12074089
REMARK minimizedRMSD -1
REMARK  3 active torsions:
REMARK  status: ('A' for Active; 'I' for Inactive)
REMARK    1  A    between atoms: C3'_2  and  C2'_3 
REMARK    2  A    between atoms: C2'_3  and  C1'_4 
REMARK    3  A    between atoms: C1'_4  and  C1_5 
ROOT
ATOM      1  C1  N4B d   1      -1.212  -2.404   1.587  0.00  0.00    -0.075 A 
ATOM      2  C2  N4B d   1      -0.085  -2.941   0.926  0.00  0.00     0.002 A 
ATOM      3  C3  N4B d   1       0.010  -2.863  -0.441  0.00  0.00     0.002 A 
ATOM      4  C4  N4B d   1      -1.013  -2.273  -1.168  0.00  0.00    -0.004 A 
ATOM      5  C5  N4B d   1      -2.086  -1.734  -0.521  0.00  0.00     0.002 A 
ATOM      6  C6  N4B d   1      -2.193  -1.801   0.854  0.00  0.00     0.002 A 
ENDROOT
BRANCH   1   7
ATOM      7  C1' N4B d   1      -1.402  -2.541   3.073  0.00  0.00     0.057 C 
BRANCH   7   8
ATOM      8  C2' N4B d   1      -1.342  -4.018   3.451  0.00  0.00     0.009 C 
BRANCH   8   9
ATOM      9  C3' N4B d   1      -2.641  -4.497   4.075  0.00  0.00     0.004 C 
ATOM     10  C4' N4B d   1      -2.494  -5.808   4.788  0.00  0.00     0.003 C 
ENDBRANCH   8   9
ENDBRANCH   7   8
ENDBRANCH   1   7
TORSDOF 3
ENDMDL
