MODEL 1
REMARK minimizedAffinity 7.74766922
REMARK minimizedRMSD -1
REMARK  3 active torsions:
REMARK  status: ('A' for Active; 'I' for Inactive)
REMARK    1  A    between atoms: C3'_2  and  C2'_3 
REMARK    2  A    between atoms: C2'_3  and  C1'_4 
REMARK    3  A    between atoms: C1'_4  and  C1_5 
ROOT
ATOM      1  C1  N4B d   1      -1.324  -3.236  -2.404  0.00  0.00    -0.075 A 
ATOM      2  C2  N4B d   1      -0.841  -2.230  -1.540  0.00  0.00     0.002 A 
ATOM      3  C3  N4B d   1       0.002  -2.558  -0.506  0.00  0.00     0.002 A 
ATOM      4  C4  N4B d   1       0.359  -3.884  -0.308  0.00  0.00    -0.004 A 
ATOM      5  C5  N4B d   1      -0.092  -4.847  -1.162  0.00  0.00     0.002 A 
ATOM      6  C6  N4B d   1      -0.936  -4.530  -2.208  0.00  0.00     0.002 A 
ENDROOT
BRANCH   1   7
ATOM      7  C1' N4B d   1      -2.316  -2.937  -3.495  0.00  0.00     0.057 C 
BRANCH   7   8
ATOM      8  C2' N4B d   1      -1.621  -2.149  -4.602  0.00  0.00     0.009 C 
BRANCH   8   9
ATOM      9  C3' N4B d   1      -2.021  -2.636  -5.984  0.00  0.00     0.004 C 
ATOM     10  C4' N4B d   1      -3.348  -3.335  -5.991  0.00  0.00     0.003 C 
ENDBRANCH   8   9
ENDBRANCH   7   8
ENDBRANCH   1   7
TORSDOF 3
ENDMDL
