MODEL 1
REMARK minimizedAffinity 7.79918098
REMARK minimizedRMSD -1
REMARK  3 active torsions:
REMARK  status: ('A' for Active; 'I' for Inactive)
REMARK    1  A    between atoms: C3'_2  and  C2'_3 
REMARK    2  A    between atoms: C2'_3  and  C1'_4 
REMARK    3  A    between atoms: C1'_4  and  C1_5 
ROOT
ATOM      1  C1  N4B d   1      -1.189  -3.358  -2.126  0.00  0.00    -0.075 A 
ATOM      2  C2  N4B d   1      -1.366  -2.289  -1.221  0.00  0.00     0.002 A 
ATOM      3  C3  N4B d   1      -0.763  -2.325   0.012  0.00  0.00     0.002 A 
ATOM      4  C4  N4B d   1       0.003  -3.425   0.368  0.00  0.00    -0.004 A 
ATOM      5  C5  N4B d   1       0.190  -4.442  -0.521  0.00  0.00     0.002 A 
ATOM      6  C6  N4B d   1      -0.407  -4.417  -1.765  0.00  0.00     0.002 A 
ENDROOT
BRANCH   1   7
ATOM      7  C1' N4B d   1      -1.898  -3.403  -3.452  0.00  0.00     0.057 C 
BRANCH   7   8
ATOM      8  C2' N4B d   1      -1.225  -2.426  -4.412  0.00  0.00     0.009 C 
BRANCH   8   9
ATOM      9  C3' N4B d   1      -1.621  -2.685  -5.856  0.00  0.00     0.004 C 
ATOM     10  C4' N4B d   1      -3.055  -3.099  -6.000  0.00  0.00     0.003 C 
ENDBRANCH   8   9
ENDBRANCH   7   8
ENDBRANCH   1   7
TORSDOF 3
ENDMDL
