MODEL 1
REMARK minimizedAffinity 7.65030622
REMARK minimizedRMSD -1
REMARK  3 active torsions:
REMARK  status: ('A' for Active; 'I' for Inactive)
REMARK    1  A    between atoms: C3'_2  and  C2'_3 
REMARK    2  A    between atoms: C2'_3  and  C1'_4 
REMARK    3  A    between atoms: C1'_4  and  C1_5 
ROOT
ATOM      1  C1  N4B d   1      -2.016  -3.323  -3.452  0.00  0.00    -0.075 A 
ATOM      2  C2  N4B d   1      -3.292  -3.902  -3.636  0.00  0.00     0.002 A 
ATOM      3  C3  N4B d   1      -3.775  -4.109  -4.904  0.00  0.00     0.002 A 
ATOM      4  C4  N4B d   1      -3.012  -3.731  -5.999  0.00  0.00    -0.004 A 
ATOM      5  C5  N4B d   1      -1.771  -3.196  -5.813  0.00  0.00     0.002 A 
ATOM      6  C6  N4B d   1      -1.271  -2.986  -4.544  0.00  0.00     0.002 A 
ENDROOT
BRANCH   1   7
ATOM      7  C1' N4B d   1      -1.482  -2.998  -2.084  0.00  0.00     0.057 C 
BRANCH   7   8
ATOM      8  C2' N4B d   1      -2.248  -1.807  -1.517  0.00  0.00     0.009 C 
BRANCH   8   9
ATOM      9  C3' N4B d   1      -1.830  -1.489  -0.091  0.00  0.00     0.004 C 
ATOM     10  C4' N4B d   1      -0.595  -2.228   0.330  0.00  0.00     0.003 C 
ENDBRANCH   8   9
ENDBRANCH   7   8
ENDBRANCH   1   7
TORSDOF 3
ENDMDL
