MODEL 1
REMARK minimizedAffinity -5.19283867
REMARK minimizedRMSD -1
REMARK  1 active torsions:
REMARK  status: ('A' for Active; 'I' for Inactive)
REMARK    1  A    between atoms: C3_4  and  O_7 
ROOT
ATOM      1  C   UNL d   1       2.926  -1.215   0.824  0.00  0.00    -0.033 A 
ATOM      2  C1  UNL d   1       1.926  -1.930   0.162  0.00  0.00     0.039 A 
ATOM      3  C2  UNL d   1       0.745  -1.291  -0.220  0.00  0.00    -0.080 A 
ATOM      4  C3  UNL d   1       0.577   0.061   0.064  0.00  0.00     0.150 A 
ATOM      5  C4  UNL d   1       1.570   0.781   0.720  0.00  0.00    -0.007 A 
ATOM      6  C5  UNL d   1       2.749   0.140   1.102  0.00  0.00     0.039 A 
ENDROOT
BRANCH   4   7
ATOM      7  O   UNL d   1      -0.561   0.727  -0.285  0.00  0.00    -0.526 OA
ATOM      8  H5  UNL d   1      -1.170   0.096  -0.705  0.00  0.00     0.418 HD
ENDBRANCH   4   7
TORSDOF 1
ENDMDL
