MODEL 1
REMARK minimizedAffinity -2.53487325
REMARK minimizedRMSD -1
REMARK  1 active torsions:
REMARK  status: ('A' for Active; 'I' for Inactive)
REMARK    1  A    between atoms: C3_4  and  O_7 
ROOT
ATOM      1  C   UNL d   1       2.312  -1.654   0.226  0.00  0.00    -0.033 A 
ATOM      2  C1  UNL d   1       1.511  -1.822  -0.905  0.00  0.00     0.039 A 
ATOM      3  C2  UNL d   1       0.375  -1.029  -1.081  0.00  0.00    -0.080 A 
ATOM      4  C3  UNL d   1       0.052  -0.074  -0.122  0.00  0.00     0.150 A 
ATOM      5  C4  UNL d   1       0.848   0.101   1.006  0.00  0.00    -0.007 A 
ATOM      6  C5  UNL d   1       1.982  -0.691   1.181  0.00  0.00     0.039 A 
ENDROOT
BRANCH   4   7
ATOM      7  O   UNL d   1      -1.049   0.720  -0.248  0.00  0.00    -0.526 OA
ATOM      8  H5  UNL d   1      -1.519   0.467  -1.060  0.00  0.00     0.418 HD
ENDBRANCH   4   7
TORSDOF 1
ENDMDL
