MODEL 1
REMARK minimizedAffinity -4.56053782
REMARK minimizedRMSD -1
REMARK  1 active torsions:
REMARK  status: ('A' for Active; 'I' for Inactive)
REMARK    1  A    between atoms: C3_4  and  O_7 
ROOT
ATOM      1  C   UNL d   1       2.459  -1.139   0.704  0.00  0.00    -0.033 A 
ATOM      2  C1  UNL d   1       2.140   0.089   1.288  0.00  0.00     0.039 A 
ATOM      3  C2  UNL d   1       0.868   0.637   1.114  0.00  0.00    -0.080 A 
ATOM      4  C3  UNL d   1      -0.074  -0.051   0.355  0.00  0.00     0.150 A 
ATOM      5  C4  UNL d   1       0.235  -1.276  -0.227  0.00  0.00    -0.007 A 
ATOM      6  C5  UNL d   1       1.506  -1.822  -0.053  0.00  0.00     0.039 A 
ENDROOT
BRANCH   4   7
ATOM      7  O   UNL d   1      -1.327   0.447   0.152  0.00  0.00    -0.526 OA
ATOM      8  H5  UNL d   1      -1.389   1.313   0.589  0.00  0.00     0.418 HD
ENDBRANCH   4   7
TORSDOF 1
ENDMDL
