MODEL 1
REMARK minimizedAffinity -4.49199009
REMARK minimizedRMSD -1
REMARK  1 active torsions:
REMARK  status: ('A' for Active; 'I' for Inactive)
REMARK    1  A    between atoms: C3_4  and  O_7 
ROOT
ATOM      1  C   UNL d   1      -0.544   0.005  -0.527  0.00  0.00    -0.033 A 
ATOM      2  C1  UNL d   1       0.309   0.884   0.143  0.00  0.00     0.039 A 
ATOM      3  C2  UNL d   1       1.528   0.427   0.649  0.00  0.00    -0.080 A 
ATOM      4  C3  UNL d   1       1.881  -0.909   0.477  0.00  0.00     0.150 A 
ATOM      5  C4  UNL d   1       1.037  -1.789  -0.192  0.00  0.00    -0.007 A 
ATOM      6  C5  UNL d   1      -0.179  -1.331  -0.696  0.00  0.00     0.039 A 
ENDROOT
BRANCH   4   7
ATOM      7  O   UNL d   1       3.058  -1.402   0.958  0.00  0.00    -0.526 OA
ATOM      8  H5  UNL d   1       3.524  -0.687   1.422  0.00  0.00     0.418 HD
ENDBRANCH   4   7
TORSDOF 1
ENDMDL
