MODEL 1
REMARK minimizedAffinity 6.05151415
REMARK minimizedRMSD -1
REMARK  0 active torsions:
REMARK  status: ('A' for Active; 'I' for Inactive)
ROOT
ATOM      1  C2' OXE d   1       0.365   1.684  -0.048  0.00  0.00     0.078 C 
ATOM      2  C1' OXE d   1      -0.235   3.016   2.349  0.00  0.00     0.078 C 
ATOM      3  C1  OXE d   1      -0.067   3.850   1.103  0.00  0.00    -0.078 A 
ATOM      4  C2  OXE d   1       0.273   3.194  -0.056  0.00  0.00    -0.078 A 
ATOM      5  C3  OXE d   1       0.387   3.909  -1.244  0.00  0.00     0.003 A 
ATOM      6  C4  OXE d   1       0.310   5.307  -1.241  0.00  0.00    -0.002 A 
ATOM      7  C5  OXE d   1       0.004   5.998  -0.064  0.00  0.00    -0.002 A 
ATOM      8  C6  OXE d   1      -0.229   5.283   1.106  0.00  0.00     0.003 A 
ENDROOT
TORSDOF 0
ENDMDL
