MODEL 1
REMARK minimizedAffinity 13.7882423
REMARK minimizedRMSD -1
REMARK  0 active torsions:
REMARK  status: ('A' for Active; 'I' for Inactive)
ROOT
ATOM      1  C2' OXE d   1       1.924  -1.086   4.916  0.00  0.00     0.078 C 
ATOM      2  C1' OXE d   1       2.262  -2.980   2.872  0.00  0.00     0.078 C 
ATOM      3  C1  OXE d   1       3.301  -2.930   3.964  0.00  0.00    -0.078 A 
ATOM      4  C2  OXE d   1       3.152  -1.969   4.935  0.00  0.00    -0.078 A 
ATOM      5  C3  OXE d   1       4.053  -1.915   5.995  0.00  0.00     0.003 A 
ATOM      6  C4  OXE d   1       5.192  -2.730   6.000  0.00  0.00    -0.002 A 
ATOM      7  C5  OXE d   1       5.383  -3.688   4.999  0.00  0.00    -0.002 A 
ATOM      8  C6  OXE d   1       4.427  -3.830   4.000  0.00  0.00     0.003 A 
ENDROOT
TORSDOF 0
ENDMDL
