MODEL 1
REMARK minimizedAffinity 3.55210185
REMARK minimizedRMSD -1
REMARK  0 active torsions:
REMARK  status: ('A' for Active; 'I' for Inactive)
ROOT
ATOM      1  C2' OXE d   1       2.662   3.698   2.980  0.00  0.00     0.078 C 
ATOM      2  C1' OXE d   1       0.124   2.525   2.726  0.00  0.00     0.078 C 
ATOM      3  C1  OXE d   1       0.573   3.472   1.641  0.00  0.00    -0.078 A 
ATOM      4  C2  OXE d   1       1.797   4.078   1.797  0.00  0.00    -0.078 A 
ATOM      5  C3  OXE d   1       2.282   4.918   0.800  0.00  0.00     0.003 A 
ATOM      6  C4  OXE d   1       1.472   5.272  -0.285  0.00  0.00    -0.002 A 
ATOM      7  C5  OXE d   1       0.206   4.698  -0.443  0.00  0.00    -0.002 A 
ATOM      8  C6  OXE d   1      -0.240   3.765   0.487  0.00  0.00     0.003 A 
ENDROOT
TORSDOF 0
ENDMDL
