MODEL 1
REMARK minimizedAffinity 11.1864786
REMARK minimizedRMSD -1
REMARK  0 active torsions:
REMARK  status: ('A' for Active; 'I' for Inactive)
ROOT
ATOM      1  C2' OXE d   1       0.732   1.779  -0.200  0.00  0.00     0.078 C 
ATOM      2  C1' OXE d   1      -0.213   2.649   2.296  0.00  0.00     0.078 C 
ATOM      3  C1  OXE d   1      -0.006   3.687   1.221  0.00  0.00    -0.078 A 
ATOM      4  C2  OXE d   1       0.501   3.258   0.018  0.00  0.00    -0.078 A 
ATOM      5  C3  OXE d   1       0.660   4.166  -1.026  0.00  0.00     0.003 A 
ATOM      6  C4  OXE d   1       0.453   5.534  -0.813  0.00  0.00    -0.002 A 
ATOM      7  C5  OXE d   1      -0.025   5.997   0.418  0.00  0.00    -0.002 A 
ATOM      8  C6  OXE d   1      -0.300   5.083   1.429  0.00  0.00     0.003 A 
ENDROOT
TORSDOF 0
ENDMDL
