MODEL 1
REMARK minimizedAffinity 1.31830108
REMARK minimizedRMSD -1
REMARK  0 active torsions:
REMARK  status: ('A' for Active; 'I' for Inactive)
ROOT
ATOM      1  C4' PXY d   1      -1.477  -0.511   3.272  0.00  0.00     0.077 C 
ATOM      2  C1' PXY d   1      -5.165  -0.608  -1.178  0.00  0.00     0.077 C 
ATOM      3  C1  PXY d   1      -4.193  -0.594  -0.015  0.00  0.00    -0.082 A 
ATOM      4  C2  PXY d   1      -4.481   0.107   1.070  0.00  0.00     0.003 A 
ATOM      5  C3  PXY d   1      -3.598   0.156   2.118  0.00  0.00     0.003 A 
ATOM      6  C4  PXY d   1      -2.433  -0.562   2.077  0.00  0.00    -0.082 A 
ATOM      7  C5  PXY d   1      -2.137  -1.287   0.978  0.00  0.00     0.003 A 
ATOM      8  C6  PXY d   1      -3.027  -1.291  -0.092  0.00  0.00     0.003 A 
ENDROOT
TORSDOF 0
ENDMDL
