MODEL 1
REMARK minimizedAffinity 5.71777916
REMARK minimizedRMSD -1
REMARK  0 active torsions:
REMARK  status: ('A' for Active; 'I' for Inactive)
ROOT
ATOM      1  C4' PXY d   1      -6.000  -1.531   0.316  0.00  0.00     0.077 C 
ATOM      2  C1' PXY d   1      -1.503   0.091   3.566  0.00  0.00     0.077 C 
ATOM      3  C1  PXY d   1      -2.687  -0.322   2.714  0.00  0.00    -0.082 A 
ATOM      4  C2  PXY d   1      -3.079  -1.586   2.708  0.00  0.00     0.003 A 
ATOM      5  C3  PXY d   1      -4.128  -1.983   1.918  0.00  0.00     0.003 A 
ATOM      6  C4  PXY d   1      -4.816  -1.067   1.168  0.00  0.00    -0.082 A 
ATOM      7  C5  PXY d   1      -4.428   0.226   1.177  0.00  0.00     0.003 A 
ATOM      8  C6  PXY d   1      -3.336   0.601   1.954  0.00  0.00     0.003 A 
ENDROOT
TORSDOF 0
ENDMDL
