MODEL 1
REMARK minimizedAffinity 7.99987173
REMARK minimizedRMSD -1
REMARK  0 active torsions:
REMARK  status: ('A' for Active; 'I' for Inactive)
ROOT
ATOM      1  C4' PXY d   1      -0.241   5.468   1.360  0.00  0.00     0.077 C 
ATOM      2  C1' PXY d   1      -6.000   4.966   1.311  0.00  0.00     0.077 C 
ATOM      3  C1  PXY d   1      -4.491   5.109   1.330  0.00  0.00    -0.082 A 
ATOM      4  C2  PXY d   1      -3.764   4.493   0.412  0.00  0.00     0.003 A 
ATOM      5  C3  PXY d   1      -2.396   4.586   0.434  0.00  0.00     0.003 A 
ATOM      6  C4  PXY d   1      -1.769   5.360   1.373  0.00  0.00    -0.082 A 
ATOM      7  C5  PXY d   1      -2.504   6.000   2.307  0.00  0.00     0.003 A 
ATOM      8  C6  PXY d   1      -3.889   5.859   2.292  0.00  0.00     0.003 A 
ENDROOT
TORSDOF 0
ENDMDL
