MODEL 1
REMARK minimizedAffinity 8.57265282
REMARK minimizedRMSD -1
REMARK  0 active torsions:
REMARK  status: ('A' for Active; 'I' for Inactive)
ROOT
ATOM      1  C4' PXY d   1      -6.000  -1.137  -3.376  0.00  0.00     0.077 C 
ATOM      2  C1' PXY d   1      -3.392  -0.079   1.673  0.00  0.00     0.077 C 
ATOM      3  C1  PXY d   1      -4.066  -0.351   0.342  0.00  0.00    -0.082 A 
ATOM      4  C2  PXY d   1      -5.378  -0.514   0.295  0.00  0.00     0.003 A 
ATOM      5  C3  PXY d   1      -6.000  -0.792  -0.895  0.00  0.00     0.003 A 
ATOM      6  C4  PXY d   1      -5.278  -0.851  -2.057  0.00  0.00    -0.082 A 
ATOM      7  C5  PXY d   1      -3.940  -0.675  -2.018  0.00  0.00     0.003 A 
ATOM      8  C6  PXY d   1      -3.323  -0.435  -0.794  0.00  0.00     0.003 A 
ENDROOT
TORSDOF 0
ENDMDL
