MODEL 1
REMARK minimizedAffinity 9.21157837
REMARK minimizedRMSD -1
REMARK  0 active torsions:
REMARK  status: ('A' for Active; 'I' for Inactive)
ROOT
ATOM      1  C4' PXY d   1      -0.628  -5.998  -0.879  0.00  0.00     0.077 C 
ATOM      2  C1' PXY d   1      -2.462  -1.709   2.535  0.00  0.00     0.077 C 
ATOM      3  C1  PXY d   1      -1.976  -2.840   1.650  0.00  0.00    -0.082 A 
ATOM      4  C2  PXY d   1      -1.762  -2.618   0.363  0.00  0.00     0.003 A 
ATOM      5  C3  PXY d   1      -1.353  -3.637  -0.458  0.00  0.00     0.003 A 
ATOM      6  C4  PXY d   1      -1.109  -4.884   0.054  0.00  0.00    -0.082 A 
ATOM      7  C5  PXY d   1      -1.316  -5.115   1.368  0.00  0.00     0.003 A 
ATOM      8  C6  PXY d   1      -1.770  -4.078   2.176  0.00  0.00     0.003 A 
ENDROOT
TORSDOF 0
ENDMDL
