MODEL 1
REMARK minimizedAffinity 4.12098074
REMARK minimizedRMSD -1
REMARK  0 active torsions:
REMARK  status: ('A' for Active; 'I' for Inactive)
ROOT
ATOM      1  C4' PXY d   1       1.975  -5.971   5.999  0.00  0.00     0.077 C 
ATOM      2  C1' PXY d   1      -2.955  -5.999   2.981  0.00  0.00     0.077 C 
ATOM      3  C1  PXY d   1      -1.669  -5.986   3.783  0.00  0.00    -0.082 A 
ATOM      4  C2  PXY d   1      -0.505  -5.975   3.152  0.00  0.00     0.003 A 
ATOM      5  C3  PXY d   1       0.668  -5.995   3.862  0.00  0.00     0.003 A 
ATOM      6  C4  PXY d   1       0.650  -5.974   5.231  0.00  0.00    -0.082 A 
ATOM      7  C5  PXY d   1      -0.533  -5.975   5.881  0.00  0.00     0.003 A 
ATOM      8  C6  PXY d   1      -1.712  -5.996   5.143  0.00  0.00     0.003 A 
ENDROOT
TORSDOF 0
ENDMDL
