MODEL 1
REMARK minimizedAffinity 9.42948627
REMARK minimizedRMSD -1
REMARK  0 active torsions:
REMARK  status: ('A' for Active; 'I' for Inactive)
ROOT
ATOM      1  C4' PXY d   1       3.919  -0.044  -2.924  0.00  0.00     0.077 C 
ATOM      2  C1' PXY d   1       1.475  -1.028   2.221  0.00  0.00     0.077 C 
ATOM      3  C1  PXY d   1       2.118  -0.757   0.875  0.00  0.00    -0.082 A 
ATOM      4  C2  PXY d   1       1.826  -1.533  -0.157  0.00  0.00     0.003 A 
ATOM      5  C3  PXY d   1       2.422  -1.322  -1.373  0.00  0.00     0.003 A 
ATOM      6  C4  PXY d   1       3.286  -0.274  -1.549  0.00  0.00    -0.082 A 
ATOM      7  C5  PXY d   1       3.581   0.527  -0.504  0.00  0.00     0.003 A 
ATOM      8  C6  PXY d   1       2.997   0.272   0.733  0.00  0.00     0.003 A 
ENDROOT
TORSDOF 0
ENDMDL
