MODEL 1
REMARK minimizedAffinity 6.0120573
REMARK minimizedRMSD -1
REMARK  0 active torsions:
REMARK  status: ('A' for Active; 'I' for Inactive)
ROOT
ATOM      1  C4' PXY d   1      -2.250  -5.962   5.995  0.00  0.00     0.077 C 
ATOM      2  C1' PXY d   1       1.171  -1.323   5.557  0.00  0.00     0.077 C 
ATOM      3  C1  PXY d   1       0.282  -2.546   5.665  0.00  0.00    -0.082 A 
ATOM      4  C2  PXY d   1      -1.016  -2.396   5.868  0.00  0.00     0.003 A 
ATOM      5  C3  PXY d   1      -1.830  -3.492   6.000  0.00  0.00     0.003 A 
ATOM      6  C4  PXY d   1      -1.317  -4.755   5.870  0.00  0.00    -0.082 A 
ATOM      7  C5  PXY d   1       0.006  -4.916   5.652  0.00  0.00     0.003 A 
ATOM      8  C6  PXY d   1       0.821  -3.792   5.562  0.00  0.00     0.003 A 
ENDROOT
TORSDOF 0
ENDMDL
