MODEL 1
REMARK minimizedAffinity 9.88355732
REMARK minimizedRMSD -1
REMARK  3 active torsions:
REMARK  status: ('A' for Active; 'I' for Inactive)
REMARK    1  A    between atoms: C3'_2  and  C2'_3 
REMARK    2  A    between atoms: C2'_3  and  C1'_4 
REMARK    3  A    between atoms: C1'_4  and  C1_5 
ROOT
ATOM      1  C1  N4B d   1       2.605  -3.051  -1.291  0.00  0.00    -0.075 A 
ATOM      2  C2  N4B d   1       2.500  -1.886  -0.500  0.00  0.00     0.002 A 
ATOM      3  C3  N4B d   1       1.931  -0.750  -1.022  0.00  0.00     0.002 A 
ATOM      4  C4  N4B d   1       1.481  -0.750  -2.334  0.00  0.00    -0.004 A 
ATOM      5  C5  N4B d   1       1.563  -1.887  -3.083  0.00  0.00     0.002 A 
ATOM      6  C6  N4B d   1       2.128  -3.037  -2.569  0.00  0.00     0.002 A 
ENDROOT
BRANCH   1   7
ATOM      7  C1' N4B d   1       3.296  -4.290  -0.791  0.00  0.00     0.057 C 
BRANCH   7   8
ATOM      8  C2' N4B d   1       4.620  -3.898  -0.143  0.00  0.00     0.009 C 
BRANCH   8   9
ATOM      9  C3' N4B d   1       5.797  -4.628  -0.769  0.00  0.00     0.004 C 
ATOM     10  C4' N4B d   1       5.999  -6.000  -0.197  0.00  0.00     0.003 C 
ENDBRANCH   8   9
ENDBRANCH   7   8
ENDBRANCH   1   7
TORSDOF 3
ENDMDL
