MODEL 1
REMARK minimizedAffinity 0.25041607
REMARK minimizedRMSD -1
REMARK  3 active torsions:
REMARK  status: ('A' for Active; 'I' for Inactive)
REMARK    1  A    between atoms: C3'_2  and  C2'_3 
REMARK    2  A    between atoms: C2'_3  and  C1'_4 
REMARK    3  A    between atoms: C1'_4  and  C1_5 
ROOT
ATOM      1  C1  N4B d   1       3.188  -4.060  -1.434  0.00  0.00    -0.075 A 
ATOM      2  C2  N4B d   1       3.257  -3.278  -2.608  0.00  0.00     0.002 A 
ATOM      3  C3  N4B d   1       3.508  -3.878  -3.818  0.00  0.00     0.002 A 
ATOM      4  C4  N4B d   1       3.710  -5.248  -3.876  0.00  0.00    -0.004 A 
ATOM      5  C5  N4B d   1       3.616  -6.000  -2.741  0.00  0.00     0.002 A 
ATOM      6  C6  N4B d   1       3.361  -5.411  -1.519  0.00  0.00     0.002 A 
ENDROOT
BRANCH   1   7
ATOM      7  C1' N4B d   1       3.001  -3.440  -0.076  0.00  0.00     0.057 C 
BRANCH   7   8
ATOM      8  C2' N4B d   1       3.215  -1.933  -0.181  0.00  0.00     0.009 C 
BRANCH   8   9
ATOM      9  C3' N4B d   1       4.575  -1.513   0.350  0.00  0.00     0.004 C 
ATOM     10  C4' N4B d   1       4.763  -0.025   0.353  0.00  0.00     0.003 C 
ENDBRANCH   8   9
ENDBRANCH   7   8
ENDBRANCH   1   7
TORSDOF 3
ENDMDL
