MODEL 1
REMARK minimizedAffinity 17.0471878
REMARK minimizedRMSD -1
REMARK  3 active torsions:
REMARK  status: ('A' for Active; 'I' for Inactive)
REMARK    1  A    between atoms: C3'_2  and  C2'_3 
REMARK    2  A    between atoms: C2'_3  and  C1'_4 
REMARK    3  A    between atoms: C1'_4  and  C1_5 
ROOT
ATOM      1  C1  N4B d   1      -3.656   1.560   3.762  0.00  0.00    -0.075 A 
ATOM      2  C2  N4B d   1      -4.826   2.351   3.747  0.00  0.00     0.002 A 
ATOM      3  C3  N4B d   1      -5.179   3.075   4.860  0.00  0.00     0.002 A 
ATOM      4  C4  N4B d   1      -4.393   3.009   6.000  0.00  0.00    -0.004 A 
ATOM      5  C5  N4B d   1      -3.251   2.262   5.997  0.00  0.00     0.002 A 
ATOM      6  C6  N4B d   1      -2.881   1.533   4.885  0.00  0.00     0.002 A 
ENDROOT
BRANCH   1   7
ATOM      7  C1' N4B d   1      -3.275   0.684   2.600  0.00  0.00     0.057 C 
BRANCH   7   8
ATOM      8  C2' N4B d   1      -3.671  -0.757   2.908  0.00  0.00     0.009 C 
BRANCH   8   9
ATOM      9  C3' N4B d   1      -4.542  -1.353   1.815  0.00  0.00     0.004 C 
ATOM     10  C4' N4B d   1      -5.999  -1.361   2.174  0.00  0.00     0.003 C 
ENDBRANCH   8   9
ENDBRANCH   7   8
ENDBRANCH   1   7
TORSDOF 3
ENDMDL
