MODEL 1
REMARK minimizedAffinity 14.2914352
REMARK minimizedRMSD -1
REMARK  3 active torsions:
REMARK  status: ('A' for Active; 'I' for Inactive)
REMARK    1  A    between atoms: C3'_2  and  C2'_3 
REMARK    2  A    between atoms: C2'_3  and  C1'_4 
REMARK    3  A    between atoms: C1'_4  and  C1_5 
ROOT
ATOM      1  C1  N4B d   1       1.431   3.208  -1.748  0.00  0.00    -0.075 A 
ATOM      2  C2  N4B d   1       1.552   3.328  -0.346  0.00  0.00     0.002 A 
ATOM      3  C3  N4B d   1       1.340   4.542   0.260  0.00  0.00     0.002 A 
ATOM      4  C4  N4B d   1       1.026   5.649  -0.514  0.00  0.00    -0.004 A 
ATOM      5  C5  N4B d   1       0.885   5.519  -1.865  0.00  0.00     0.002 A 
ATOM      6  C6  N4B d   1       1.092   4.305  -2.487  0.00  0.00     0.002 A 
ENDROOT
BRANCH   1   7
ATOM      7  C1' N4B d   1       1.737   1.921  -2.464  0.00  0.00     0.057 C 
BRANCH   7   8
ATOM      8  C2' N4B d   1       2.158   0.868  -1.444  0.00  0.00     0.009 C 
BRANCH   8   9
ATOM      9  C3' N4B d   1       1.680  -0.521  -1.831  0.00  0.00     0.004 C 
ATOM     10  C4' N4B d   1       1.910  -1.536  -0.751  0.00  0.00     0.003 C 
ENDBRANCH   8   9
ENDBRANCH   7   8
ENDBRANCH   1   7
TORSDOF 3
ENDMDL
