MODEL 1
REMARK minimizedAffinity 8.22646236
REMARK minimizedRMSD -1
REMARK  3 active torsions:
REMARK  status: ('A' for Active; 'I' for Inactive)
REMARK    1  A    between atoms: C3'_2  and  C2'_3 
REMARK    2  A    between atoms: C2'_3  and  C1'_4 
REMARK    3  A    between atoms: C1'_4  and  C1_5 
ROOT
ATOM      1  C1  N4B d   1      -1.040   2.147   4.063  0.00  0.00    -0.075 A 
ATOM      2  C2  N4B d   1      -0.031   1.433   3.381  0.00  0.00     0.002 A 
ATOM      3  C3  N4B d   1       1.138   1.112   4.025  0.00  0.00     0.002 A 
ATOM      4  C4  N4B d   1       1.329   1.511   5.340  0.00  0.00    -0.004 A 
ATOM      5  C5  N4B d   1       0.339   2.178   6.000  0.00  0.00     0.002 A 
ATOM      6  C6  N4B d   1      -0.844   2.504   5.366  0.00  0.00     0.002 A 
ENDROOT
BRANCH   1   7
ATOM      7  C1' N4B d   1      -2.301   2.595   3.375  0.00  0.00     0.057 C 
BRANCH   7   8
ATOM      8  C2' N4B d   1      -3.366   1.513   3.527  0.00  0.00     0.009 C 
BRANCH   8   9
ATOM      9  C3' N4B d   1      -3.253   0.448   2.450  0.00  0.00     0.004 C 
ATOM     10  C4' N4B d   1      -4.145  -0.731   2.703  0.00  0.00     0.003 C 
ENDBRANCH   8   9
ENDBRANCH   7   8
ENDBRANCH   1   7
TORSDOF 3
ENDMDL
