MODEL 1
REMARK minimizedAffinity 3.14808273
REMARK minimizedRMSD -1
REMARK  3 active torsions:
REMARK  status: ('A' for Active; 'I' for Inactive)
REMARK    1  A    between atoms: C3'_2  and  C2'_3 
REMARK    2  A    between atoms: C2'_3  and  C1'_4 
REMARK    3  A    between atoms: C1'_4  and  C1_5 
ROOT
ATOM      1  C1  N4B d   1       3.318  -4.856  -1.865  0.00  0.00    -0.075 A 
ATOM      2  C2  N4B d   1       2.110  -4.125  -1.873  0.00  0.00     0.002 A 
ATOM      3  C3  N4B d   1       1.743  -3.418  -2.992  0.00  0.00     0.002 A 
ATOM      4  C4  N4B d   1       2.574  -3.411  -4.102  0.00  0.00    -0.004 A 
ATOM      5  C5  N4B d   1       3.727  -4.140  -4.095  0.00  0.00     0.002 A 
ATOM      6  C6  N4B d   1       4.106  -4.859  -2.980  0.00  0.00     0.002 A 
ENDROOT
BRANCH   1   7
ATOM      7  C1' N4B d   1       3.803  -5.576  -0.636  0.00  0.00     0.057 C 
BRANCH   7   8
ATOM      8  C2' N4B d   1       4.312  -4.552   0.374  0.00  0.00     0.009 C 
BRANCH   8   9
ATOM      9  C3' N4B d   1       5.666  -3.988  -0.021  0.00  0.00     0.004 C 
ATOM     10  C4' N4B d   1       5.985  -2.700   0.678  0.00  0.00     0.003 C 
ENDBRANCH   8   9
ENDBRANCH   7   8
ENDBRANCH   1   7
TORSDOF 3
ENDMDL
