MODEL 1
REMARK minimizedAffinity 8.89078236
REMARK minimizedRMSD -1
REMARK  3 active torsions:
REMARK  status: ('A' for Active; 'I' for Inactive)
REMARK    1  A    between atoms: C3'_2  and  C2'_3 
REMARK    2  A    between atoms: C2'_3  and  C1'_4 
REMARK    3  A    between atoms: C1'_4  and  C1_5 
ROOT
ATOM      1  C1  N4B d   1      -2.168   0.344   2.652  0.00  0.00    -0.075 A 
ATOM      2  C2  N4B d   1      -0.966  -0.379   2.813  0.00  0.00     0.002 A 
ATOM      3  C3  N4B d   1      -0.043   0.024   3.747  0.00  0.00     0.002 A 
ATOM      4  C4  N4B d   1      -0.291   1.152   4.514  0.00  0.00    -0.004 A 
ATOM      5  C5  N4B d   1      -1.466   1.830   4.369  0.00  0.00     0.002 A 
ATOM      6  C6  N4B d   1      -2.404   1.434   3.438  0.00  0.00     0.002 A 
ENDROOT
BRANCH   1   7
ATOM      7  C1' N4B d   1      -3.169  -0.008   1.585  0.00  0.00     0.057 C 
BRANCH   7   8
ATOM      8  C2' N4B d   1      -4.542  -0.185   2.225  0.00  0.00     0.009 C 
BRANCH   8   9
ATOM      9  C3' N4B d   1      -4.927  -1.650   2.349  0.00  0.00     0.004 C 
ATOM     10  C4' N4B d   1      -5.998  -2.053   1.380  0.00  0.00     0.003 C 
ENDBRANCH   8   9
ENDBRANCH   7   8
ENDBRANCH   1   7
TORSDOF 3
ENDMDL
