MODEL 1
REMARK minimizedAffinity 1.45844543
REMARK minimizedRMSD -1
REMARK  3 active torsions:
REMARK  status: ('A' for Active; 'I' for Inactive)
REMARK    1  A    between atoms: C3'_2  and  C2'_3 
REMARK    2  A    between atoms: C2'_3  and  C1'_4 
REMARK    3  A    between atoms: C1'_4  and  C1_5 
ROOT
ATOM      1  C1  N4B d   1       3.138  -3.658  -1.454  0.00  0.00    -0.075 A 
ATOM      2  C2  N4B d   1       2.427  -3.221  -2.593  0.00  0.00     0.002 A 
ATOM      3  C3  N4B d   1       2.607  -3.852  -3.799  0.00  0.00     0.002 A 
ATOM      4  C4  N4B d   1       3.504  -4.906  -3.895  0.00  0.00    -0.004 A 
ATOM      5  C5  N4B d   1       4.168  -5.338  -2.785  0.00  0.00     0.002 A 
ATOM      6  C6  N4B d   1       3.993  -4.716  -1.565  0.00  0.00     0.002 A 
ENDROOT
BRANCH   1   7
ATOM      7  C1' N4B d   1       3.039  -2.946  -0.133  0.00  0.00     0.057 C 
BRANCH   7   8
ATOM      8  C2' N4B d   1       4.365  -2.251   0.163  0.00  0.00     0.009 C 
BRANCH   8   9
ATOM      9  C3' N4B d   1       4.282  -0.751  -0.057  0.00  0.00     0.004 C 
ATOM     10  C4' N4B d   1       3.050  -0.341  -0.807  0.00  0.00     0.003 C 
ENDBRANCH   8   9
ENDBRANCH   7   8
ENDBRANCH   1   7
TORSDOF 3
ENDMDL
