MODEL 1
REMARK minimizedAffinity -3.23455191
REMARK minimizedRMSD -1
REMARK  3 active torsions:
REMARK  status: ('A' for Active; 'I' for Inactive)
REMARK    1  A    between atoms: C3'_2  and  C2'_3 
REMARK    2  A    between atoms: C2'_3  and  C1'_4 
REMARK    3  A    between atoms: C1'_4  and  C1_5 
ROOT
ATOM      1  C1  N4B d   1       3.605  -4.481  -3.771  0.00  0.00    -0.075 A 
ATOM      2  C2  N4B d   1       3.263  -3.705  -4.900  0.00  0.00     0.002 A 
ATOM      3  C3  N4B d   1       4.086  -3.693  -6.000  0.00  0.00     0.002 A 
ATOM      4  C4  N4B d   1       5.260  -4.431  -5.986  0.00  0.00    -0.004 A 
ATOM      5  C5  N4B d   1       5.570  -5.198  -4.901  0.00  0.00     0.002 A 
ATOM      6  C6  N4B d   1       4.751  -5.222  -3.791  0.00  0.00     0.002 A 
ENDROOT
BRANCH   1   7
ATOM      7  C1' N4B d   1       2.781  -4.458  -2.513  0.00  0.00     0.057 C 
BRANCH   7   8
ATOM      8  C2' N4B d   1       1.954  -3.177  -2.479  0.00  0.00     0.009 C 
BRANCH   8   9
ATOM      9  C3' N4B d   1       2.229  -2.356  -1.231  0.00  0.00     0.004 C 
ATOM     10  C4' N4B d   1       2.186  -0.879  -1.486  0.00  0.00     0.003 C 
ENDBRANCH   8   9
ENDBRANCH   7   8
ENDBRANCH   1   7
TORSDOF 3
ENDMDL
