MODEL 1
REMARK minimizedAffinity -5.4439311
REMARK minimizedRMSD -1
REMARK  0 active torsions:
REMARK  status: ('A' for Active; 'I' for Inactive)
ROOT
ATOM      1  C   UNL d   1       2.568   2.680   0.097  0.00  0.00    -0.002 A 
ATOM      2  C1  UNL d   1       1.466   3.518   0.188  0.00  0.00     0.010 A 
ATOM      3  C2  UNL d   1       0.174   2.991   0.221  0.00  0.00     0.041 A 
ATOM      4  C3  UNL d   1       0.006   1.594   0.162  0.00  0.00    -0.075 A 
ATOM      5  S   UNL d   1      -1.482   0.723   0.188  0.00  0.00     0.015 SA
ATOM      6  C4  UNL d   1      -0.690  -0.782   0.080  0.00  0.00     0.022 A 
ATOM      7  C5  UNL d   1       0.677  -0.642   0.024  0.00  0.00     0.026 A 
ATOM      8  C6  UNL d   1       1.100   0.729   0.071  0.00  0.00    -0.082 A 
ATOM      9  C7  UNL d   1       2.398   1.294   0.039  0.00  0.00     0.045 A 
ENDROOT
TORSDOF 0
ENDMDL
