MODEL 1
REMARK minimizedAffinity -1.83923781
REMARK minimizedRMSD -1
REMARK  0 active torsions:
REMARK  status: ('A' for Active; 'I' for Inactive)
ROOT
ATOM      1  C   UNL d   1       1.279   2.862   1.476  0.00  0.00    -0.002 A 
ATOM      2  C1  UNL d   1       2.240   1.881   1.275  0.00  0.00     0.010 A 
ATOM      3  C2  UNL d   1       1.882   0.626   0.780  0.00  0.00     0.041 A 
ATOM      4  C3  UNL d   1       0.528   0.372   0.483  0.00  0.00    -0.075 A 
ATOM      5  S   UNL d   1      -0.144  -1.091  -0.134  0.00  0.00     0.015 SA
ATOM      6  C4  UNL d   1      -1.722  -0.448  -0.148  0.00  0.00     0.022 A 
ATOM      7  C5  UNL d   1      -1.754   0.849   0.305  0.00  0.00     0.026 A 
ATOM      8  C6  UNL d   1      -0.458   1.344   0.676  0.00  0.00    -0.082 A 
ATOM      9  C7  UNL d   1      -0.063   2.606   1.181  0.00  0.00     0.045 A 
ENDROOT
TORSDOF 0
ENDMDL
