MODEL 1
REMARK minimizedAffinity 2.7043407
REMARK minimizedRMSD -1
REMARK  0 active torsions:
REMARK  status: ('A' for Active; 'I' for Inactive)
ROOT
ATOM      1  C   UNL d   1      -2.067   2.052   0.564  0.00  0.00    -0.002 A 
ATOM      2  C1  UNL d   1      -1.855   0.818  -0.035  0.00  0.00     0.010 A 
ATOM      3  C2  UNL d   1      -0.578   0.255  -0.068  0.00  0.00     0.041 A 
ATOM      4  C3  UNL d   1       0.493   0.958   0.519  0.00  0.00    -0.075 A 
ATOM      5  S   UNL d   1       2.142   0.462   0.599  0.00  0.00     0.015 SA
ATOM      6  C4  UNL d   1       2.604   1.876   1.431  0.00  0.00     0.022 A 
ATOM      7  C5  UNL d   1       1.539   2.716   1.651  0.00  0.00     0.026 A 
ATOM      8  C6  UNL d   1       0.304   2.201   1.129  0.00  0.00    -0.082 A 
ATOM      9  C7  UNL d   1      -1.002   2.746   1.145  0.00  0.00     0.045 A 
ENDROOT
TORSDOF 0
ENDMDL
