MODEL 1
REMARK minimizedAffinity 0.000752111606
REMARK minimizedRMSD -1
REMARK  0 active torsions:
REMARK  status: ('A' for Active; 'I' for Inactive)
ROOT
ATOM      1  C   UNL d   1       0.937   3.837   0.229  0.00  0.00    -0.002 A 
ATOM      2  C1  UNL d   1       2.224   3.318   0.245  0.00  0.00     0.010 A 
ATOM      3  C2  UNL d   1       2.433   1.940   0.334  0.00  0.00     0.041 A 
ATOM      4  C3  UNL d   1       1.316   1.084   0.404  0.00  0.00    -0.075 A 
ATOM      5  S   UNL d   1       1.331  -0.636   0.517  0.00  0.00     0.015 SA
ATOM      6  C4  UNL d   1      -0.371  -0.723   0.546  0.00  0.00     0.022 A 
ATOM      7  C5  UNL d   1      -0.952   0.521   0.472  0.00  0.00     0.026 A 
ATOM      8  C6  UNL d   1       0.011   1.583   0.389  0.00  0.00    -0.082 A 
ATOM      9  C7  UNL d   1      -0.168   2.985   0.299  0.00  0.00     0.045 A 
ENDROOT
TORSDOF 0
ENDMDL
