MODEL 1
REMARK minimizedAffinity -3.76840973
REMARK minimizedRMSD -1
REMARK  0 active torsions:
REMARK  status: ('A' for Active; 'I' for Inactive)
ROOT
ATOM      1  C   UNL d   1      -1.071  -3.358  -2.526  0.00  0.00    -0.002 A 
ATOM      2  C1  UNL d   1      -1.390  -3.974  -1.325  0.00  0.00     0.010 A 
ATOM      3  C2  UNL d   1      -0.886  -3.484  -0.119  0.00  0.00     0.041 A 
ATOM      4  C3  UNL d   1      -0.048  -2.352  -0.140  0.00  0.00    -0.075 A 
ATOM      5  S   UNL d   1       0.685  -1.575   1.213  0.00  0.00     0.015 SA
ATOM      6  C4  UNL d   1       1.438  -0.405   0.228  0.00  0.00     0.022 A 
ATOM      7  C5  UNL d   1       1.149  -0.588  -1.103  0.00  0.00     0.026 A 
ATOM      8  C6  UNL d   1       0.287  -1.713  -1.338  0.00  0.00    -0.082 A 
ATOM      9  C7  UNL d   1      -0.240  -2.234  -2.544  0.00  0.00     0.045 A 
ENDROOT
TORSDOF 0
ENDMDL
