MODEL 1
REMARK minimizedAffinity 1.88180101
REMARK minimizedRMSD -1
REMARK  0 active torsions:
REMARK  status: ('A' for Active; 'I' for Inactive)
ROOT
ATOM      1  C   UNL d   1      -0.810   3.015   0.903  0.00  0.00    -0.002 A 
ATOM      2  C1  UNL d   1       0.570   3.074   1.040  0.00  0.00     0.010 A 
ATOM      3  C2  UNL d   1       1.359   1.955   0.765  0.00  0.00     0.041 A 
ATOM      4  C3  UNL d   1       0.732   0.766   0.343  0.00  0.00    -0.075 A 
ATOM      5  S   UNL d   1       1.497  -0.728  -0.051  0.00  0.00     0.015 SA
ATOM      6  C4  UNL d   1       0.010  -1.479  -0.412  0.00  0.00     0.022 A 
ATOM      7  C5  UNL d   1      -1.054  -0.625  -0.241  0.00  0.00     0.026 A 
ATOM      8  C6  UNL d   1      -0.655   0.683   0.196  0.00  0.00    -0.082 A 
ATOM      9  C7  UNL d   1      -1.428   1.834   0.484  0.00  0.00     0.045 A 
ENDROOT
TORSDOF 0
ENDMDL
