MODEL 1
REMARK minimizedAffinity -1.7440697
REMARK minimizedRMSD -1
REMARK  0 active torsions:
REMARK  status: ('A' for Active; 'I' for Inactive)
ROOT
ATOM      1  C   UNL d   1       2.339   2.243   1.195  0.00  0.00    -0.002 A 
ATOM      2  C1  UNL d   1       1.132   2.923   1.290  0.00  0.00     0.010 A 
ATOM      3  C2  UNL d   1      -0.070   2.281   0.984  0.00  0.00     0.041 A 
ATOM      4  C3  UNL d   1      -0.039   0.932   0.579  0.00  0.00    -0.075 A 
ATOM      5  S   UNL d   1      -1.386  -0.057   0.156  0.00  0.00     0.015 SA
ATOM      6  C4  UNL d   1      -0.392  -1.405  -0.160  0.00  0.00     0.022 A 
ATOM      7  C5  UNL d   1       0.938  -1.125   0.047  0.00  0.00     0.026 A 
ATOM      8  C6  UNL d   1       1.163   0.227   0.477  0.00  0.00    -0.082 A 
ATOM      9  C7  UNL d   1       2.365   0.905   0.793  0.00  0.00     0.045 A 
ENDROOT
TORSDOF 0
ENDMDL
