MODEL 1
REMARK minimizedAffinity -4.71010017
REMARK minimizedRMSD -1
REMARK  0 active torsions:
REMARK  status: ('A' for Active; 'I' for Inactive)
ROOT
ATOM      1  C   UNL d   1       2.743   3.000   0.082  0.00  0.00    -0.002 A 
ATOM      2  C1  UNL d   1       3.108   1.712  -0.284  0.00  0.00     0.010 A 
ATOM      3  C2  UNL d   1       2.156   0.693  -0.344  0.00  0.00     0.041 A 
ATOM      4  C3  UNL d   1       0.816   0.994  -0.029  0.00  0.00    -0.075 A 
ATOM      5  S   UNL d   1      -0.522  -0.094  -0.036  0.00  0.00     0.015 SA
ATOM      6  C4  UNL d   1      -1.611   1.126   0.446  0.00  0.00     0.022 A 
ATOM      7  C5  UNL d   1      -0.986   2.339   0.613  0.00  0.00     0.026 A 
ATOM      8  C6  UNL d   1       0.423   2.283   0.341  0.00  0.00    -0.082 A 
ATOM      9  C7  UNL d   1       1.412   3.294   0.394  0.00  0.00     0.045 A 
ENDROOT
TORSDOF 0
ENDMDL
