MODEL 1
REMARK minimizedAffinity 3.21255064
REMARK minimizedRMSD -1
REMARK  0 active torsions:
REMARK  status: ('A' for Active; 'I' for Inactive)
ROOT
ATOM      1  C   UNL d   1       1.379  -0.299   0.127  0.00  0.00    -0.002 A 
ATOM      2  C1  UNL d   1       2.044  -0.680  -1.030  0.00  0.00     0.010 A 
ATOM      3  C2  UNL d   1       1.482  -1.620  -1.895  0.00  0.00     0.041 A 
ATOM      4  C3  UNL d   1       0.227  -2.176  -1.577  0.00  0.00    -0.075 A 
ATOM      5  S   UNL d   1      -0.655  -3.344  -2.488  0.00  0.00     0.015 SA
ATOM      6  C4  UNL d   1      -1.935  -3.364  -1.364  0.00  0.00     0.022 A 
ATOM      7  C5  UNL d   1      -1.712  -2.507  -0.313  0.00  0.00     0.026 A 
ATOM      8  C6  UNL d   1      -0.463  -1.808  -0.418  0.00  0.00    -0.082 A 
ATOM      9  C7  UNL d   1       0.134  -0.852   0.440  0.00  0.00     0.045 A 
ENDROOT
TORSDOF 0
ENDMDL
