MODEL 1
REMARK minimizedAffinity 1.23044896
REMARK minimizedRMSD -1
REMARK  0 active torsions:
REMARK  status: ('A' for Active; 'I' for Inactive)
ROOT
ATOM      1  C   UNL d   1       0.389  -3.468  -3.367  0.00  0.00    -0.002 A 
ATOM      2  C1  UNL d   1      -0.817  -3.667  -2.711  0.00  0.00     0.010 A 
ATOM      3  C2  UNL d   1      -1.065  -3.056  -1.480  0.00  0.00     0.041 A 
ATOM      4  C3  UNL d   1      -0.071  -2.232  -0.916  0.00  0.00    -0.075 A 
ATOM      5  S   UNL d   1      -0.153  -1.381   0.581  0.00  0.00     0.015 SA
ATOM      6  C4  UNL d   1       1.411  -0.733   0.384  0.00  0.00     0.022 A 
ATOM      7  C5  UNL d   1       1.996  -1.146  -0.790  0.00  0.00     0.026 A 
ATOM      8  C6  UNL d   1       1.151  -2.016  -1.558  0.00  0.00    -0.082 A 
ATOM      9  C7  UNL d   1       1.372  -2.651  -2.804  0.00  0.00     0.045 A 
ENDROOT
TORSDOF 0
ENDMDL
