MODEL 1
REMARK minimizedAffinity -1.71549904
REMARK minimizedRMSD -1
REMARK  0 active torsions:
REMARK  status: ('A' for Active; 'I' for Inactive)
ROOT
ATOM      1  C   UNL d   1      -1.735   1.723   0.376  0.00  0.00    -0.002 A 
ATOM      2  C1  UNL d   1      -1.500   0.370   0.177  0.00  0.00     0.010 A 
ATOM      3  C2  UNL d   1      -0.203  -0.143   0.246  0.00  0.00     0.041 A 
ATOM      4  C3  UNL d   1       0.863   0.734   0.524  0.00  0.00    -0.075 A 
ATOM      5  S   UNL d   1       2.534   0.330   0.659  0.00  0.00     0.015 SA
ATOM      6  C4  UNL d   1       2.975   1.943   0.985  0.00  0.00     0.022 A 
ATOM      7  C5  UNL d   1       1.887   2.784   0.994  0.00  0.00     0.026 A 
ATOM      8  C6  UNL d   1       0.652   2.100   0.730  0.00  0.00    -0.082 A 
ATOM      9  C7  UNL d   1      -0.674   2.591   0.652  0.00  0.00     0.045 A 
ENDROOT
TORSDOF 0
ENDMDL
