MODEL 1
REMARK minimizedAffinity -4.17240286
REMARK minimizedRMSD -1
REMARK  0 active torsions:
REMARK  status: ('A' for Active; 'I' for Inactive)
ROOT
ATOM      1  C   UNL d   1      -0.100   3.473   0.257  0.00  0.00    -0.002 A 
ATOM      2  C1  UNL d   1       1.287   3.464   0.296  0.00  0.00     0.010 A 
ATOM      3  C2  UNL d   1       1.990   2.257   0.288  0.00  0.00     0.041 A 
ATOM      4  C3  UNL d   1       1.268   1.048   0.237  0.00  0.00    -0.075 A 
ATOM      5  S   UNL d   1       1.915  -0.549   0.217  0.00  0.00     0.015 SA
ATOM      6  C4  UNL d   1       0.366  -1.257   0.155  0.00  0.00     0.022 A 
ATOM      7  C5  UNL d   1      -0.633  -0.312   0.149  0.00  0.00     0.026 A 
ATOM      8  C6  UNL d   1      -0.129   1.032   0.196  0.00  0.00    -0.082 A 
ATOM      9  C7  UNL d   1      -0.813   2.272   0.206  0.00  0.00     0.045 A 
ENDROOT
TORSDOF 0
ENDMDL
