MODEL 1
REMARK minimizedAffinity -4.09173822
REMARK minimizedRMSD -1
REMARK  0 active torsions:
REMARK  status: ('A' for Active; 'I' for Inactive)
ROOT
ATOM      1  C   UNL d   1       1.942   3.041   0.178  0.00  0.00    -0.002 A 
ATOM      2  C1  UNL d   1       0.688   3.581   0.427  0.00  0.00     0.010 A 
ATOM      3  C2  UNL d   1      -0.418   2.751   0.615  0.00  0.00     0.041 A 
ATOM      4  C3  UNL d   1      -0.242   1.355   0.550  0.00  0.00    -0.075 A 
ATOM      5  S   UNL d   1      -1.452   0.143   0.750  0.00  0.00     0.015 SA
ATOM      6  C4  UNL d   1      -0.333  -1.120   0.510  0.00  0.00     0.022 A 
ATOM      7  C5  UNL d   1       0.938  -0.647   0.282  0.00  0.00     0.026 A 
ATOM      8  C6  UNL d   1       1.011   0.787   0.301  0.00  0.00    -0.082 A 
ATOM      9  C7  UNL d   1       2.113   1.656   0.114  0.00  0.00     0.045 A 
ENDROOT
TORSDOF 0
ENDMDL
