MODEL 1
REMARK minimizedAffinity -1.26104999
REMARK minimizedRMSD -1
REMARK  0 active torsions:
REMARK  status: ('A' for Active; 'I' for Inactive)
ROOT
ATOM      1  C   UNL d   1      -0.666   2.211   0.645  0.00  0.00     0.124 A 
ATOM      2  C1  UNL d   1      -0.988   1.065   1.357  0.00  0.00     0.062 A 
ATOM      3  C2  UNL d   1      -0.579  -0.184   0.897  0.00  0.00     0.162 A 
ATOM      4  C3  UNL d   1       0.157  -0.292  -0.283  0.00  0.00    -0.034 A 
ATOM      5  C4  UNL d   1       0.476   0.865  -0.995  0.00  0.00     0.162 A 
ATOM      6  C5  UNL d   1       0.066   2.111  -0.530  0.00  0.00     0.062 A 
ATOM      7  F   UNL d   1       0.378   3.218  -1.220  0.00  0.00    -0.097 F 
ATOM      8  F1  UNL d   1       1.183   0.797  -2.133  0.00  0.00    -0.096 F 
ATOM      9  I   UNL d   1       0.770  -2.157  -0.975  0.00  0.00    -0.060 I 
ATOM     10  F2  UNL d   1      -0.905  -1.275   1.606  0.00  0.00    -0.096 F 
ATOM     11  F3  UNL d   1      -1.695   1.159   2.492  0.00  0.00    -0.097 F 
ATOM     12  F4  UNL d   1      -1.061   3.411   1.089  0.00  0.00    -0.092 F 
ENDROOT
TORSDOF 0
ENDMDL
