MODEL 1
REMARK minimizedAffinity -2.55474806
REMARK minimizedRMSD -1
REMARK  0 active torsions:
REMARK  status: ('A' for Active; 'I' for Inactive)
ROOT
ATOM      1  C   UNL d   1      -0.485   0.762   0.999  0.00  0.00     0.124 A 
ATOM      2  C1  UNL d   1      -1.078  -0.487   1.125  0.00  0.00     0.062 A 
ATOM      3  C2  UNL d   1      -0.785  -1.496   0.213  0.00  0.00     0.162 A 
ATOM      4  C3  UNL d   1       0.107  -1.262  -0.834  0.00  0.00    -0.034 A 
ATOM      5  C4  UNL d   1       0.698  -0.003  -0.956  0.00  0.00     0.162 A 
ATOM      6  C5  UNL d   1       0.402   1.003  -0.041  0.00  0.00     0.062 A 
ATOM      7  F   UNL d   1       0.975   2.209  -0.165  0.00  0.00    -0.097 F 
ATOM      8  F1  UNL d   1       1.559   0.256  -1.950  0.00  0.00    -0.096 F 
ATOM      9  I   UNL d   1       0.547  -2.769  -2.200  0.00  0.00    -0.060 I 
ATOM     10  F2  UNL d   1      -1.372  -2.693   0.360  0.00  0.00    -0.096 F 
ATOM     11  F3  UNL d   1      -1.936  -0.721   2.129  0.00  0.00    -0.097 F 
ATOM     12  F4  UNL d   1      -0.770   1.732   1.877  0.00  0.00    -0.092 F 
ENDROOT
TORSDOF 0
ENDMDL
