MODEL 1
REMARK minimizedAffinity 0.788359284
REMARK minimizedRMSD -1
REMARK  0 active torsions:
REMARK  status: ('A' for Active; 'I' for Inactive)
ROOT
ATOM      1  C   UNL d   1      -0.579   1.691   0.816  0.00  0.00     0.124 A 
ATOM      2  C1  UNL d   1      -1.067   0.486   1.302  0.00  0.00     0.062 A 
ATOM      3  C2  UNL d   1      -0.570  -0.718   0.812  0.00  0.00     0.162 A 
ATOM      4  C3  UNL d   1       0.422  -0.724  -0.168  0.00  0.00    -0.034 A 
ATOM      5  C4  UNL d   1       0.907   0.492  -0.652  0.00  0.00     0.162 A 
ATOM      6  C5  UNL d   1       0.407   1.693  -0.160  0.00  0.00     0.062 A 
ATOM      7  F   UNL d   1       0.880   2.857  -0.631  0.00  0.00    -0.097 F 
ATOM      8  F1  UNL d   1       1.861   0.523  -1.595  0.00  0.00    -0.096 F 
ATOM      9  I   UNL d   1       1.168  -2.523  -0.902  0.00  0.00    -0.060 I 
ATOM     10  F2  UNL d   1      -1.060  -1.868   1.300  0.00  0.00    -0.096 F 
ATOM     11  F3  UNL d   1      -2.021   0.482   2.244  0.00  0.00    -0.097 F 
ATOM     12  F4  UNL d   1      -1.060   2.849   1.288  0.00  0.00    -0.092 F 
ENDROOT
TORSDOF 0
ENDMDL
