MODEL 1
REMARK minimizedAffinity 5.05228615
REMARK minimizedRMSD -1
REMARK  0 active torsions:
REMARK  status: ('A' for Active; 'I' for Inactive)
ROOT
ATOM      1  C   UNL d   1      -1.032  -0.531  -0.144  0.00  0.00     0.124 A 
ATOM      2  C1  UNL d   1      -1.954   0.333   0.431  0.00  0.00     0.062 A 
ATOM      3  C2  UNL d   1      -1.624   1.045   1.580  0.00  0.00     0.162 A 
ATOM      4  C3  UNL d   1      -0.365   0.897   2.163  0.00  0.00    -0.034 A 
ATOM      5  C4  UNL d   1       0.556   0.026   1.580  0.00  0.00     0.162 A 
ATOM      6  C5  UNL d   1       0.221  -0.684   0.431  0.00  0.00     0.062 A 
ATOM      7  F   UNL d   1       1.113  -1.519  -0.122  0.00  0.00    -0.097 F 
ATOM      8  F1  UNL d   1       1.775  -0.141   2.114  0.00  0.00    -0.096 F 
ATOM      9  I   UNL d   1       0.132   1.960   3.881  0.00  0.00    -0.060 I 
ATOM     10  F2  UNL d   1      -2.534   1.874   2.114  0.00  0.00    -0.096 F 
ATOM     11  F3  UNL d   1      -3.167   0.482  -0.122  0.00  0.00    -0.097 F 
ATOM     12  F4  UNL d   1      -1.353  -1.216  -1.249  0.00  0.00    -0.092 F 
ENDROOT
TORSDOF 0
ENDMDL
