MODEL 1
REMARK minimizedAffinity -0.438058227
REMARK minimizedRMSD -1
REMARK  0 active torsions:
REMARK  status: ('A' for Active; 'I' for Inactive)
ROOT
ATOM      1  C   UNL d   1      -1.161  -0.686   1.421  0.00  0.00     0.124 A 
ATOM      2  C1  UNL d   1      -1.416  -1.991   1.024  0.00  0.00     0.062 A 
ATOM      3  C2  UNL d   1      -0.651  -2.579   0.020  0.00  0.00     0.162 A 
ATOM      4  C3  UNL d   1       0.376  -1.862  -0.593  0.00  0.00    -0.034 A 
ATOM      5  C4  UNL d   1       0.625  -0.549  -0.189  0.00  0.00     0.162 A 
ATOM      6  C5  UNL d   1      -0.141   0.034   0.815  0.00  0.00     0.062 A 
ATOM      7  F   UNL d   1       0.106   1.295   1.197  0.00  0.00    -0.097 F 
ATOM      8  F1  UNL d   1       1.605   0.169  -0.758  0.00  0.00    -0.096 F 
ATOM      9  I   UNL d   1       1.521  -2.737  -2.095  0.00  0.00    -0.060 I 
ATOM     10  F2  UNL d   1      -0.919  -3.842  -0.343  0.00  0.00    -0.096 F 
ATOM     11  F3  UNL d   1      -2.401  -2.688   1.608  0.00  0.00    -0.097 F 
ATOM     12  F4  UNL d   1      -1.899  -0.123   2.387  0.00  0.00    -0.092 F 
ENDROOT
TORSDOF 0
ENDMDL
