MODEL 1
REMARK minimizedAffinity 0.289779693
REMARK minimizedRMSD -1
REMARK  0 active torsions:
REMARK  status: ('A' for Active; 'I' for Inactive)
ROOT
ATOM      1  C   UNL d   1      -0.614   1.403   1.118  0.00  0.00     0.124 A 
ATOM      2  C1  UNL d   1       0.145   1.469  -0.042  0.00  0.00     0.062 A 
ATOM      3  C2  UNL d   1       0.696   0.312  -0.585  0.00  0.00     0.162 A 
ATOM      4  C3  UNL d   1       0.489  -0.922   0.031  0.00  0.00    -0.034 A 
ATOM      5  C4  UNL d   1      -0.275  -0.981   1.198  0.00  0.00     0.162 A 
ATOM      6  C5  UNL d   1      -0.823   0.179   1.737  0.00  0.00     0.062 A 
ATOM      7  F   UNL d   1      -1.556   0.113   2.858  0.00  0.00    -0.097 F 
ATOM      8  F1  UNL d   1      -0.494  -2.151   1.815  0.00  0.00    -0.096 F 
ATOM      9  I   UNL d   1       1.310  -2.655  -0.779  0.00  0.00    -0.060 I 
ATOM     10  F2  UNL d   1       1.425   0.406  -1.707  0.00  0.00    -0.096 F 
ATOM     11  F3  UNL d   1       0.350   2.651  -0.641  0.00  0.00    -0.097 F 
ATOM     12  F4  UNL d   1      -1.141   2.518   1.640  0.00  0.00    -0.092 F 
ENDROOT
TORSDOF 0
ENDMDL
