MODEL 1
REMARK minimizedAffinity 2.48408008
REMARK minimizedRMSD -1
REMARK  0 active torsions:
REMARK  status: ('A' for Active; 'I' for Inactive)
ROOT
ATOM      1  C   UNL d   1       0.270  -0.469   1.370  0.00  0.00     0.124 A 
ATOM      2  C1  UNL d   1       1.139  -0.288   0.303  0.00  0.00     0.062 A 
ATOM      3  C2  UNL d   1       1.163   0.923  -0.382  0.00  0.00     0.162 A 
ATOM      4  C3  UNL d   1       0.315   1.964  -0.002  0.00  0.00    -0.034 A 
ATOM      5  C4  UNL d   1      -0.557   1.774   1.071  0.00  0.00     0.162 A 
ATOM      6  C5  UNL d   1      -0.577   0.561   1.753  0.00  0.00     0.062 A 
ATOM      7  F   UNL d   1      -1.417   0.388   2.784  0.00  0.00    -0.097 F 
ATOM      8  F1  UNL d   1      -1.385   2.753   1.463  0.00  0.00    -0.096 F 
ATOM      9  I   UNL d   1       0.347   3.776  -1.025  0.00  0.00    -0.060 I 
ATOM     10  F2  UNL d   1       2.013   1.070  -1.410  0.00  0.00    -0.096 F 
ATOM     11  F3  UNL d   1       1.958  -1.282  -0.069  0.00  0.00    -0.097 F 
ATOM     12  F4  UNL d   1       0.249  -1.636   2.027  0.00  0.00    -0.092 F 
ENDROOT
TORSDOF 0
ENDMDL
