MODEL 1
REMARK minimizedAffinity -4.05836153
REMARK minimizedRMSD -1
REMARK  0 active torsions:
REMARK  status: ('A' for Active; 'I' for Inactive)
ROOT
ATOM      1  C   UNL d   1       0.813  -2.058  -1.919  0.00  0.00     0.124 A 
ATOM      2  C1  UNL d   1       0.138  -2.613  -0.841  0.00  0.00     0.062 A 
ATOM      3  C2  UNL d   1      -0.359  -1.796   0.170  0.00  0.00     0.162 A 
ATOM      4  C3  UNL d   1      -0.185  -0.413   0.107  0.00  0.00    -0.034 A 
ATOM      5  C4  UNL d   1       0.495   0.138  -0.980  0.00  0.00     0.162 A 
ATOM      6  C5  UNL d   1       0.991  -0.683  -1.987  0.00  0.00     0.062 A 
ATOM      7  F   UNL d   1       1.643  -0.145  -3.028  0.00  0.00    -0.097 F 
ATOM      8  F1  UNL d   1       0.681   1.463  -1.072  0.00  0.00    -0.096 F 
ATOM      9  I   UNL d   1      -0.928   0.812   1.616  0.00  0.00    -0.060 I 
ATOM     10  F2  UNL d   1      -1.008  -2.360   1.200  0.00  0.00    -0.096 F 
ATOM     11  F3  UNL d   1      -0.034  -3.941  -0.771  0.00  0.00    -0.097 F 
ATOM     12  F4  UNL d   1       1.292  -2.847  -2.889  0.00  0.00    -0.092 F 
ENDROOT
TORSDOF 0
ENDMDL
