MODEL 1
REMARK minimizedAffinity 1.09422076
REMARK minimizedRMSD -1
REMARK  0 active torsions:
REMARK  status: ('A' for Active; 'I' for Inactive)
ROOT
ATOM      1  C   UNL d   1      -0.791   2.658   0.462  0.00  0.00     0.124 A 
ATOM      2  C1  UNL d   1      -1.232   1.466   1.020  0.00  0.00     0.062 A 
ATOM      3  C2  UNL d   1      -0.656   0.258   0.635  0.00  0.00     0.162 A 
ATOM      4  C3  UNL d   1       0.368   0.237  -0.312  0.00  0.00    -0.034 A 
ATOM      5  C4  UNL d   1       0.806   1.440  -0.868  0.00  0.00     0.162 A 
ATOM      6  C5  UNL d   1       0.227   2.644  -0.481  0.00  0.00     0.062 A 
ATOM      7  F   UNL d   1       0.654   3.795  -1.020  0.00  0.00    -0.097 F 
ATOM      8  F1  UNL d   1       1.788   1.455  -1.781  0.00  0.00    -0.096 F 
ATOM      9  I   UNL d   1       1.232  -1.567  -0.889  0.00  0.00    -0.060 I 
ATOM     10  F2  UNL d   1      -1.102  -0.879   1.190  0.00  0.00    -0.096 F 
ATOM     11  F3  UNL d   1      -2.216   1.476   1.930  0.00  0.00    -0.097 F 
ATOM     12  F4  UNL d   1      -1.347   3.818   0.834  0.00  0.00    -0.092 F 
ENDROOT
TORSDOF 0
ENDMDL
