MODEL 1
REMARK minimizedAffinity -2.32685661
REMARK minimizedRMSD -1
REMARK  0 active torsions:
REMARK  status: ('A' for Active; 'I' for Inactive)
ROOT
ATOM      1  C   UNL d   1      -0.615   2.379   1.011  0.00  0.00     0.124 A 
ATOM      2  C1  UNL d   1       0.218   2.420  -0.099  0.00  0.00     0.062 A 
ATOM      3  C2  UNL d   1       0.822   1.256  -0.564  0.00  0.00     0.162 A 
ATOM      4  C3  UNL d   1       0.596   0.039   0.081  0.00  0.00    -0.034 A 
ATOM      5  C4  UNL d   1      -0.242   0.006   1.197  0.00  0.00     0.162 A 
ATOM      6  C5  UNL d   1      -0.844   1.173   1.658  0.00  0.00     0.062 A 
ATOM      7  F   UNL d   1      -1.648   1.131   2.730  0.00  0.00    -0.097 F 
ATOM      8  F1  UNL d   1      -0.481  -1.146   1.840  0.00  0.00    -0.096 F 
ATOM      9  I   UNL d   1       1.498  -1.704  -0.611  0.00  0.00    -0.060 I 
ATOM     10  F2  UNL d   1       1.622   1.325  -1.638  0.00  0.00    -0.096 F 
ATOM     11  F3  UNL d   1       0.441   3.584  -0.725  0.00  0.00    -0.097 F 
ATOM     12  F4  UNL d   1      -1.195   3.501   1.457  0.00  0.00    -0.092 F 
ENDROOT
TORSDOF 0
ENDMDL
