MODEL 1
REMARK minimizedAffinity 1.03780043
REMARK minimizedRMSD -1
REMARK  0 active torsions:
REMARK  status: ('A' for Active; 'I' for Inactive)
ROOT
ATOM      1  C   UNL d   1       1.145  -2.582  -1.882  0.00  0.00     0.124 A 
ATOM      2  C1  UNL d   1       0.097  -1.762  -2.276  0.00  0.00     0.062 A 
ATOM      3  C2  UNL d   1      -0.476  -0.874  -1.371  0.00  0.00     0.162 A 
ATOM      4  C3  UNL d   1      -0.002  -0.801  -0.061  0.00  0.00    -0.034 A 
ATOM      5  C4  UNL d   1       1.052  -1.630   0.329  0.00  0.00     0.162 A 
ATOM      6  C5  UNL d   1       1.621  -2.515  -0.580  0.00  0.00     0.062 A 
ATOM      7  F   UNL d   1       2.634  -3.307  -0.197  0.00  0.00    -0.097 F 
ATOM      8  F1  UNL d   1       1.532  -1.585   1.580  0.00  0.00    -0.096 F 
ATOM      9  I   UNL d   1      -0.856   0.525   1.297  0.00  0.00    -0.060 I 
ATOM     10  F2  UNL d   1      -1.488  -0.094  -1.779  0.00  0.00    -0.096 F 
ATOM     11  F3  UNL d   1      -0.366  -1.825  -3.533  0.00  0.00    -0.097 F 
ATOM     12  F4  UNL d   1       1.694  -3.436  -2.755  0.00  0.00    -0.092 F 
ENDROOT
TORSDOF 0
ENDMDL
