MODEL 1
REMARK minimizedAffinity -1.00809944
REMARK minimizedRMSD -1
REMARK  0 active torsions:
REMARK  status: ('A' for Active; 'I' for Inactive)
ROOT
ATOM      1  C   UNL d   1       0.292   3.951   1.636  0.00  0.00     0.124 A 
ATOM      2  C1  UNL d   1      -0.178   2.834   2.314  0.00  0.00     0.062 A 
ATOM      3  C2  UNL d   1      -0.320   1.620   1.649  0.00  0.00     0.162 A 
ATOM      4  C3  UNL d   1       0.008   1.516   0.297  0.00  0.00    -0.034 A 
ATOM      5  C4  UNL d   1       0.480   2.643  -0.378  0.00  0.00     0.162 A 
ATOM      6  C5  UNL d   1       0.620   3.854   0.291  0.00  0.00     0.062 A 
ATOM      7  F   UNL d   1       1.075   4.932  -0.365  0.00  0.00    -0.097 F 
ATOM      8  F1  UNL d   1       0.805   2.578  -1.678  0.00  0.00    -0.096 F 
ATOM      9  I   UNL d   1      -0.203  -0.298  -0.702  0.00  0.00    -0.060 I 
ATOM     10  F2  UNL d   1      -0.777   0.558   2.328  0.00  0.00    -0.096 F 
ATOM     11  F3  UNL d   1      -0.496   2.925   3.613  0.00  0.00    -0.097 F 
ATOM     12  F4  UNL d   1       0.428   5.118   2.279  0.00  0.00    -0.092 F 
ENDROOT
TORSDOF 0
ENDMDL
