MODEL 1
REMARK minimizedAffinity -2.59813643
REMARK minimizedRMSD -1
REMARK  0 active torsions:
REMARK  status: ('A' for Active; 'I' for Inactive)
ROOT
ATOM      1  C   UNL d   1      -0.358   3.049  -0.495  0.00  0.00     0.124 A 
ATOM      2  C1  UNL d   1      -1.152   2.772   0.609  0.00  0.00     0.062 A 
ATOM      3  C2  UNL d   1      -1.011   1.565   1.287  0.00  0.00     0.162 A 
ATOM      4  C3  UNL d   1      -0.072   0.625   0.863  0.00  0.00    -0.034 A 
ATOM      5  C4  UNL d   1       0.722   0.910  -0.249  0.00  0.00     0.162 A 
ATOM      6  C5  UNL d   1       0.578   2.118  -0.923  0.00  0.00     0.062 A 
ATOM      7  F   UNL d   1       1.345   2.384  -1.990  0.00  0.00    -0.097 F 
ATOM      8  F1  UNL d   1       1.635   0.028  -0.684  0.00  0.00    -0.096 F 
ATOM      9  I   UNL d   1       0.141  -1.182   1.874  0.00  0.00    -0.060 I 
ATOM     10  F2  UNL d   1      -1.792   1.324   2.351  0.00  0.00    -0.096 F 
ATOM     11  F3  UNL d   1      -2.057   3.670   1.024  0.00  0.00    -0.097 F 
ATOM     12  F4  UNL d   1      -0.496   4.212  -1.146  0.00  0.00    -0.092 F 
ENDROOT
TORSDOF 0
ENDMDL
