MODEL 1
REMARK minimizedAffinity -2.0021646
REMARK minimizedRMSD -1
REMARK  0 active torsions:
REMARK  status: ('A' for Active; 'I' for Inactive)
ROOT
ATOM      1  O1  BZF d   1       0.272   1.400  -0.021  0.00  0.00    -0.204 OA
ATOM      2  C2  BZF d   1      -0.991   0.898  -0.270  0.00  0.00     0.174 A 
ATOM      3  C3  BZF d   1      -0.940  -0.429  -0.504  0.00  0.00    -0.012 A 
ATOM      4  C3A BZF d   1       0.429  -0.795  -0.304  0.00  0.00    -0.107 A 
ATOM      5  C4  BZF d   1       1.104  -1.980  -0.374  0.00  0.00     0.055 A 
ATOM      6  C5  BZF d   1       2.451  -1.984  -0.194  0.00  0.00    -0.016 A 
ATOM      7  C6  BZF d   1       3.154  -0.823   0.052  0.00  0.00     0.022 A 
ATOM      8  C7  BZF d   1       2.527   0.375   0.136  0.00  0.00     0.029 A 
ATOM      9  C7A BZF d   1       1.162   0.378  -0.012  0.00  0.00     0.058 A 
ENDROOT
TORSDOF 0
ENDMDL
