MODEL 1
REMARK minimizedAffinity -2.98848438
REMARK minimizedRMSD -1
REMARK  0 active torsions:
REMARK  status: ('A' for Active; 'I' for Inactive)
ROOT
ATOM      1  O1  BZF d   1      -0.303   0.982   1.130  0.00  0.00    -0.204 OA
ATOM      2  C2  BZF d   1       0.191   0.632  -0.112  0.00  0.00     0.174 A 
ATOM      3  C3  BZF d   1      -0.815   0.448  -0.992  0.00  0.00    -0.012 A 
ATOM      4  C3A BZF d   1      -2.007   0.790  -0.278  0.00  0.00    -0.107 A 
ATOM      5  C4  BZF d   1      -3.329   0.823  -0.620  0.00  0.00     0.055 A 
ATOM      6  C5  BZF d   1      -4.249   1.130   0.331  0.00  0.00    -0.016 A 
ATOM      7  C6  BZF d   1      -3.884   1.403   1.633  0.00  0.00     0.022 A 
ATOM      8  C7  BZF d   1      -2.585   1.387   2.019  0.00  0.00     0.029 A 
ATOM      9  C7A BZF d   1      -1.650   1.110   1.052  0.00  0.00     0.058 A 
ENDROOT
TORSDOF 0
ENDMDL
