MODEL 1
REMARK minimizedAffinity -3.49812222
REMARK minimizedRMSD -1
REMARK  0 active torsions:
REMARK  status: ('A' for Active; 'I' for Inactive)
ROOT
ATOM      1  O1  BZF d   1       2.450  -0.123   0.804  0.00  0.00    -0.204 OA
ATOM      2  C2  BZF d   1       2.830  -1.450   0.771  0.00  0.00     0.174 A 
ATOM      3  C3  BZF d   1       1.808  -2.231   0.366  0.00  0.00    -0.012 A 
ATOM      4  C3A BZF d   1       0.749  -1.325   0.042  0.00  0.00    -0.107 A 
ATOM      5  C4  BZF d   1      -0.520  -1.496  -0.432  0.00  0.00     0.055 A 
ATOM      6  C5  BZF d   1      -1.325  -0.410  -0.572  0.00  0.00    -0.016 A 
ATOM      7  C6  BZF d   1      -0.896   0.859  -0.242  0.00  0.00     0.022 A 
ATOM      8  C7  BZF d   1       0.356   1.079   0.228  0.00  0.00     0.029 A 
ATOM      9  C7A BZF d   1       1.183  -0.013   0.338  0.00  0.00     0.058 A 
ENDROOT
TORSDOF 0
ENDMDL
