MODEL 1
REMARK minimizedAffinity -1.67106628
REMARK minimizedRMSD -1
REMARK  0 active torsions:
REMARK  status: ('A' for Active; 'I' for Inactive)
ROOT
ATOM      1  O1  BZF d   1       2.239  -0.282   1.159  0.00  0.00    -0.204 OA
ATOM      2  C2  BZF d   1       2.627  -1.597   0.993  0.00  0.00     0.174 A 
ATOM      3  C3  BZF d   1       1.693  -2.289   0.309  0.00  0.00    -0.012 A 
ATOM      4  C3A BZF d   1       0.699  -1.324  -0.051  0.00  0.00    -0.107 A 
ATOM      5  C4  BZF d   1      -0.470  -1.398  -0.753  0.00  0.00     0.055 A 
ATOM      6  C5  BZF d   1      -1.246  -0.288  -0.862  0.00  0.00    -0.016 A 
ATOM      7  C6  BZF d   1      -0.886   0.910  -0.278  0.00  0.00     0.022 A 
ATOM      8  C7  BZF d   1       0.267   1.033   0.424  0.00  0.00     0.029 A 
ATOM      9  C7A BZF d   1       1.069  -0.079   0.508  0.00  0.00     0.058 A 
ENDROOT
TORSDOF 0
ENDMDL
