MODEL 1
REMARK minimizedAffinity -1.61964047
REMARK minimizedRMSD -1
REMARK  0 active torsions:
REMARK  status: ('A' for Active; 'I' for Inactive)
ROOT
ATOM      1  O1  BZF d   1       3.255   0.304  -0.024  0.00  0.00    -0.204 OA
ATOM      2  C2  BZF d   1       3.402  -1.069  -0.088  0.00  0.00     0.174 A 
ATOM      3  C3  BZF d   1       2.200  -1.676  -0.158  0.00  0.00    -0.012 A 
ATOM      4  C3A BZF d   1       1.245  -0.613  -0.230  0.00  0.00    -0.107 A 
ATOM      5  C4  BZF d   1      -0.117  -0.579  -0.331  0.00  0.00     0.055 A 
ATOM      6  C5  BZF d   1      -0.751   0.622  -0.304  0.00  0.00    -0.016 A 
ATOM      7  C6  BZF d   1      -0.058   1.807  -0.172  0.00  0.00     0.022 A 
ATOM      8  C7  BZF d   1       1.294   1.825  -0.073  0.00  0.00     0.029 A 
ATOM      9  C7A BZF d   1       1.941   0.614  -0.133  0.00  0.00     0.058 A 
ENDROOT
TORSDOF 0
ENDMDL
