MODEL 1
REMARK minimizedAffinity -3.4012773
REMARK minimizedRMSD -1
REMARK  0 active torsions:
REMARK  status: ('A' for Active; 'I' for Inactive)
ROOT
ATOM      1  O1  BZF d   1      -2.078   0.079  -0.986  0.00  0.00    -0.204 OA
ATOM      2  C2  BZF d   1      -2.398   1.297  -0.418  0.00  0.00     0.174 A 
ATOM      3  C3  BZF d   1      -1.380   1.755   0.338  0.00  0.00    -0.012 A 
ATOM      4  C3A BZF d   1      -0.324   0.805   0.162  0.00  0.00    -0.107 A 
ATOM      5  C4  BZF d   1       0.951   0.718   0.644  0.00  0.00     0.055 A 
ATOM      6  C5  BZF d   1       1.699  -0.374   0.339  0.00  0.00    -0.016 A 
ATOM      7  C6  BZF d   1       1.204  -1.399  -0.440  0.00  0.00     0.022 A 
ATOM      8  C7  BZF d   1      -0.053  -1.355  -0.946  0.00  0.00     0.029 A 
ATOM      9  C7A BZF d   1      -0.800  -0.237  -0.666  0.00  0.00     0.058 A 
ENDROOT
TORSDOF 0
ENDMDL
