MODEL 1
REMARK minimizedAffinity -4.69928551
REMARK minimizedRMSD -1
REMARK  0 active torsions:
REMARK  status: ('A' for Active; 'I' for Inactive)
ROOT
ATOM      1  O1  BZF d   1      -0.186   0.945  -0.423  0.00  0.00    -0.204 OA
ATOM      2  C2  BZF d   1      -1.044  -0.136  -0.483  0.00  0.00     0.174 A 
ATOM      3  C3  BZF d   1      -0.370  -1.292  -0.317  0.00  0.00    -0.012 A 
ATOM      4  C3A BZF d   1       0.981  -0.904  -0.049  0.00  0.00    -0.107 A 
ATOM      5  C4  BZF d   1       2.123  -1.604   0.218  0.00  0.00     0.055 A 
ATOM      6  C5  BZF d   1       3.294  -0.928   0.361  0.00  0.00    -0.016 A 
ATOM      7  C6  BZF d   1       3.359   0.444   0.238  0.00  0.00     0.022 A 
ATOM      8  C7  BZF d   1       2.252   1.182  -0.021  0.00  0.00     0.029 A 
ATOM      9  C7A BZF d   1       1.062   0.505  -0.133  0.00  0.00     0.058 A 
ENDROOT
TORSDOF 0
ENDMDL
