MODEL 1
REMARK minimizedAffinity -3.53975987
REMARK minimizedRMSD -1
REMARK  0 active torsions:
REMARK  status: ('A' for Active; 'I' for Inactive)
ROOT
ATOM      1  O1  BZF d   1      -3.228  -0.907   0.633  0.00  0.00    -0.204 OA
ATOM      2  C2  BZF d   1      -4.155   0.052   0.271  0.00  0.00     0.174 A 
ATOM      3  C3  BZF d   1      -3.540   1.174  -0.158  0.00  0.00    -0.012 A 
ATOM      4  C3A BZF d   1      -2.143   0.865  -0.145  0.00  0.00    -0.107 A 
ATOM      5  C4  BZF d   1      -1.023   1.571  -0.479  0.00  0.00     0.055 A 
ATOM      6  C5  BZF d   1       0.197   1.006  -0.282  0.00  0.00    -0.016 A 
ATOM      7  C6  BZF d   1       0.334  -0.258   0.253  0.00  0.00     0.022 A 
ATOM      8  C7  BZF d   1      -0.748  -0.999   0.595  0.00  0.00     0.029 A 
ATOM      9  C7A BZF d   1      -1.983  -0.444   0.366  0.00  0.00     0.058 A 
ENDROOT
TORSDOF 0
ENDMDL
