MODEL 1
REMARK minimizedAffinity -1.65587175
REMARK minimizedRMSD -1
REMARK  0 active torsions:
REMARK  status: ('A' for Active; 'I' for Inactive)
ROOT
ATOM      1  O1  BZF d   1      -0.854   0.353   1.106  0.00  0.00    -0.204 OA
ATOM      2  C2  BZF d   1      -1.433   0.844  -0.048  0.00  0.00     0.174 A 
ATOM      3  C3  BZF d   1      -0.660   0.581  -1.121  0.00  0.00    -0.012 A 
ATOM      4  C3A BZF d   1       0.429  -0.199  -0.618  0.00  0.00    -0.107 A 
ATOM      5  C4  BZF d   1       1.520  -0.776  -1.203  0.00  0.00     0.055 A 
ATOM      6  C5  BZF d   1       2.433  -1.408  -0.420  0.00  0.00    -0.016 A 
ATOM      7  C6  BZF d   1       2.290  -1.477   0.950  0.00  0.00     0.022 A 
ATOM      8  C7  BZF d   1       1.222  -0.924   1.576  0.00  0.00     0.029 A 
ATOM      9  C7A BZF d   1       0.281  -0.314   0.783  0.00  0.00     0.058 A 
ENDROOT
TORSDOF 0
ENDMDL
