MODEL 1
REMARK minimizedAffinity -3.31526208
REMARK minimizedRMSD -1
REMARK  0 active torsions:
REMARK  status: ('A' for Active; 'I' for Inactive)
ROOT
ATOM      1  C   UNL d   1       4.920  -0.393  -5.611  0.00  0.00     0.078 C 
ATOM      2  C1  UNL d   1       4.990  -1.868  -5.354  0.00  0.00    -0.077 A 
ATOM      3  C2  UNL d   1       4.120  -2.755  -5.999  0.00  0.00    -0.001 A 
ATOM      4  C3  UNL d   1       4.190  -4.125  -5.743  0.00  0.00     0.003 A 
ATOM      5  C4  UNL d   1       5.127  -4.621  -4.839  0.00  0.00    -0.005 A 
ATOM      6  C5  UNL d   1       5.996  -3.746  -4.189  0.00  0.00     0.003 A 
ATOM      7  C6  UNL d   1       5.928  -2.375  -4.445  0.00  0.00    -0.001 A 
ENDROOT
TORSDOF 0
ENDMDL
