MODEL 1
REMARK minimizedAffinity -3.29093099
REMARK minimizedRMSD -1
REMARK  0 active torsions:
REMARK  status: ('A' for Active; 'I' for Inactive)
ROOT
ATOM      1  C   UNL d   1       4.808  -1.833  -4.873  0.00  0.00     0.078 C 
ATOM      2  C1  UNL d   1       4.801  -3.287  -4.505  0.00  0.00    -0.077 A 
ATOM      3  C2  UNL d   1       3.612  -4.027  -4.510  0.00  0.00    -0.001 A 
ATOM      4  C3  UNL d   1       3.619  -5.377  -4.156  0.00  0.00     0.003 A 
ATOM      5  C4  UNL d   1       4.812  -5.999  -3.793  0.00  0.00    -0.005 A 
ATOM      6  C5  UNL d   1       5.999  -5.271  -3.783  0.00  0.00     0.003 A 
ATOM      7  C6  UNL d   1       5.995  -3.920  -4.137  0.00  0.00    -0.001 A 
ENDROOT
TORSDOF 0
ENDMDL
