MODEL 1
REMARK minimizedAffinity -2.99294686
REMARK minimizedRMSD -1
REMARK  0 active torsions:
REMARK  status: ('A' for Active; 'I' for Inactive)
ROOT
ATOM      1  C   UNL d   1       3.851  -2.175  -5.796  0.00  0.00     0.078 C 
ATOM      2  C1  UNL d   1       4.279  -3.496  -5.231  0.00  0.00    -0.077 A 
ATOM      3  C2  UNL d   1       5.617  -3.904  -5.282  0.00  0.00    -0.001 A 
ATOM      4  C3  UNL d   1       5.999  -5.141  -4.761  0.00  0.00     0.003 A 
ATOM      5  C4  UNL d   1       5.048  -5.982  -4.185  0.00  0.00    -0.005 A 
ATOM      6  C5  UNL d   1       3.713  -5.586  -4.132  0.00  0.00     0.003 A 
ATOM      7  C6  UNL d   1       3.330  -4.349  -4.652  0.00  0.00    -0.001 A 
ENDROOT
TORSDOF 0
ENDMDL
