MODEL 1
REMARK minimizedAffinity -2.77591324
REMARK minimizedRMSD -1
REMARK  0 active torsions:
REMARK  status: ('A' for Active; 'I' for Inactive)
ROOT
ATOM      1  C   UNL d   1       6.000  -2.878  -3.852  0.00  0.00     0.078 C 
ATOM      2  C1  UNL d   1       5.219  -3.957  -4.541  0.00  0.00    -0.077 A 
ATOM      3  C2  UNL d   1       3.820  -3.976  -4.495  0.00  0.00    -0.001 A 
ATOM      4  C3  UNL d   1       3.107  -4.993  -5.132  0.00  0.00     0.003 A 
ATOM      5  C4  UNL d   1       3.784  -5.999  -5.818  0.00  0.00    -0.005 A 
ATOM      6  C5  UNL d   1       5.177  -5.990  -5.867  0.00  0.00     0.003 A 
ATOM      7  C6  UNL d   1       5.892  -4.974  -5.230  0.00  0.00    -0.001 A 
ENDROOT
TORSDOF 0
ENDMDL
