MODEL 1
REMARK minimizedAffinity -2.30975127
REMARK minimizedRMSD -1
REMARK  0 active torsions:
REMARK  status: ('A' for Active; 'I' for Inactive)
ROOT
ATOM      1  C   UNL d   1       6.000  -1.896  -5.265  0.00  0.00     0.078 C 
ATOM      2  C1  UNL d   1       5.317  -3.224  -5.131  0.00  0.00    -0.077 A 
ATOM      3  C2  UNL d   1       4.005  -3.315  -4.650  0.00  0.00    -0.001 A 
ATOM      4  C3  UNL d   1       3.385  -4.559  -4.522  0.00  0.00     0.003 A 
ATOM      5  C4  UNL d   1       4.070  -5.721  -4.871  0.00  0.00    -0.005 A 
ATOM      6  C5  UNL d   1       5.376  -5.641  -5.348  0.00  0.00     0.003 A 
ATOM      7  C6  UNL d   1       5.998  -4.398  -5.477  0.00  0.00    -0.001 A 
ENDROOT
TORSDOF 0
ENDMDL
