MODEL 1
REMARK minimizedAffinity -3.82848549
REMARK minimizedRMSD -1
REMARK  0 active torsions:
REMARK  status: ('A' for Active; 'I' for Inactive)
ROOT
ATOM      1  C   UNL d   1       4.869  -1.337  -5.387  0.00  0.00     0.078 C 
ATOM      2  C1  UNL d   1       4.856  -2.797  -5.046  0.00  0.00    -0.077 A 
ATOM      3  C2  UNL d   1       3.710  -3.575  -5.247  0.00  0.00    -0.001 A 
ATOM      4  C3  UNL d   1       3.709  -4.931  -4.916  0.00  0.00     0.003 A 
ATOM      5  C4  UNL d   1       4.852  -5.521  -4.379  0.00  0.00    -0.005 A 
ATOM      6  C5  UNL d   1       5.997  -4.754  -4.173  0.00  0.00     0.003 A 
ATOM      7  C6  UNL d   1       6.000  -3.398  -4.504  0.00  0.00    -0.001 A 
ENDROOT
TORSDOF 0
ENDMDL
