MODEL 1
REMARK minimizedAffinity -2.7346127
REMARK minimizedRMSD -1
REMARK  0 active torsions:
REMARK  status: ('A' for Active; 'I' for Inactive)
ROOT
ATOM      1  C   UNL d   1       4.811  -1.750  -4.965  0.00  0.00     0.078 C 
ATOM      2  C1  UNL d   1       4.849  -3.229  -5.212  0.00  0.00    -0.077 A 
ATOM      3  C2  UNL d   1       5.981  -3.838  -5.767  0.00  0.00    -0.001 A 
ATOM      4  C3  UNL d   1       5.999  -5.215  -6.000  0.00  0.00     0.003 A 
ATOM      5  C4  UNL d   1       4.888  -5.993  -5.681  0.00  0.00    -0.005 A 
ATOM      6  C5  UNL d   1       3.757  -5.395  -5.130  0.00  0.00     0.003 A 
ATOM      7  C6  UNL d   1       3.737  -4.019  -4.897  0.00  0.00    -0.001 A 
ENDROOT
TORSDOF 0
ENDMDL
