MODEL 1
REMARK minimizedAffinity -3.55405712
REMARK minimizedRMSD -1
REMARK  0 active torsions:
REMARK  status: ('A' for Active; 'I' for Inactive)
ROOT
ATOM      1  C   UNL d   1       3.887  -1.305  -5.619  0.00  0.00     0.078 C 
ATOM      2  C1  UNL d   1       4.287  -2.690  -5.206  0.00  0.00    -0.077 A 
ATOM      3  C2  UNL d   1       3.353  -3.733  -5.180  0.00  0.00    -0.001 A 
ATOM      4  C3  UNL d   1       3.737  -5.015  -4.784  0.00  0.00     0.003 A 
ATOM      5  C4  UNL d   1       5.055  -5.266  -4.410  0.00  0.00    -0.005 A 
ATOM      6  C5  UNL d   1       5.991  -4.234  -4.430  0.00  0.00     0.003 A 
ATOM      7  C6  UNL d   1       5.609  -2.952  -4.826  0.00  0.00    -0.001 A 
ENDROOT
TORSDOF 0
ENDMDL
