MODEL 1
REMARK minimizedAffinity -4.04551649
REMARK minimizedRMSD -1
REMARK  0 active torsions:
REMARK  status: ('A' for Active; 'I' for Inactive)
ROOT
ATOM      1  C   UNL d   1       5.995  -5.648  -3.296  0.00  0.00     0.078 C 
ATOM      2  C1  UNL d   1       5.254  -4.631  -4.111  0.00  0.00    -0.077 A 
ATOM      3  C2  UNL d   1       4.505  -5.012  -5.232  0.00  0.00    -0.001 A 
ATOM      4  C3  UNL d   1       3.828  -4.054  -5.987  0.00  0.00     0.003 A 
ATOM      5  C4  UNL d   1       3.895  -2.708  -5.632  0.00  0.00    -0.005 A 
ATOM      6  C5  UNL d   1       4.639  -2.319  -4.521  0.00  0.00     0.003 A 
ATOM      7  C6  UNL d   1       5.317  -3.276  -3.763  0.00  0.00    -0.001 A 
ENDROOT
TORSDOF 0
ENDMDL
