MODEL 1
REMARK minimizedAffinity -3.46655869
REMARK minimizedRMSD -1
REMARK  0 active torsions:
REMARK  status: ('A' for Active; 'I' for Inactive)
ROOT
ATOM      1  C   UNL d   1       5.708  -5.999  -2.986  0.00  0.00     0.078 C 
ATOM      2  C1  UNL d   1       5.415  -4.933  -3.998  0.00  0.00    -0.077 A 
ATOM      3  C2  UNL d   1       5.998  -3.664  -3.898  0.00  0.00    -0.001 A 
ATOM      4  C3  UNL d   1       5.709  -2.678  -4.843  0.00  0.00     0.003 A 
ATOM      5  C4  UNL d   1       4.835  -2.950  -5.893  0.00  0.00    -0.005 A 
ATOM      6  C5  UNL d   1       4.248  -4.209  -6.000  0.00  0.00     0.003 A 
ATOM      7  C6  UNL d   1       4.536  -5.196  -5.056  0.00  0.00    -0.001 A 
ENDROOT
TORSDOF 0
ENDMDL
