MODEL 1
REMARK minimizedAffinity -3.18150258
REMARK minimizedRMSD -1
REMARK  0 active torsions:
REMARK  status: ('A' for Active; 'I' for Inactive)
ROOT
ATOM      1  O1  BZF d   1       1.346   0.534   0.453  0.00  0.00    -0.204 OA
ATOM      2  C2  BZF d   1       0.225   1.025  -0.189  0.00  0.00     0.174 A 
ATOM      3  C3  BZF d   1      -0.625   0.024  -0.497  0.00  0.00    -0.012 A 
ATOM      4  C3A BZF d   1      -0.039  -1.154   0.063  0.00  0.00    -0.107 A 
ATOM      5  C4  BZF d   1      -0.420  -2.465   0.103  0.00  0.00     0.055 A 
ATOM      6  C5  BZF d   1       0.414  -3.379   0.665  0.00  0.00    -0.016 A 
ATOM      7  C6  BZF d   1       1.637  -3.019   1.192  0.00  0.00     0.022 A 
ATOM      8  C7  BZF d   1       2.056  -1.730   1.180  0.00  0.00     0.029 A 
ATOM      9  C7A BZF d   1       1.201  -0.799   0.642  0.00  0.00     0.058 A 
ENDROOT
TORSDOF 0
ENDMDL
