MODEL 1
REMARK minimizedAffinity -4.76714897
REMARK minimizedRMSD -1
REMARK  0 active torsions:
REMARK  status: ('A' for Active; 'I' for Inactive)
ROOT
ATOM      1  O1  BZF d   1      -2.376   0.193  -0.575  0.00  0.00    -0.204 OA
ATOM      2  C2  BZF d   1      -2.365   1.200  -1.520  0.00  0.00     0.174 A 
ATOM      3  C3  BZF d   1      -1.104   1.599  -1.781  0.00  0.00    -0.012 A 
ATOM      4  C3A BZF d   1      -0.268   0.727  -1.014  0.00  0.00    -0.107 A 
ATOM      5  C4  BZF d   1       1.085   0.614  -0.866  0.00  0.00     0.055 A 
ATOM      6  C5  BZF d   1       1.579  -0.295   0.016  0.00  0.00    -0.016 A 
ATOM      7  C6  BZF d   1       0.751  -1.102   0.768  0.00  0.00     0.022 A 
ATOM      8  C7  BZF d   1      -0.598  -1.030   0.651  0.00  0.00     0.029 A 
ATOM      9  C7A BZF d   1      -1.099  -0.135  -0.263  0.00  0.00     0.058 A 
ENDROOT
TORSDOF 0
ENDMDL
