MODEL 1
REMARK minimizedAffinity -3.32569146
REMARK minimizedRMSD -1
REMARK  0 active torsions:
REMARK  status: ('A' for Active; 'I' for Inactive)
ROOT
ATOM      1  O1  BZF d   1       2.095  -1.830   0.562  0.00  0.00    -0.204 OA
ATOM      2  C2  BZF d   1       1.088  -2.681   0.974  0.00  0.00     0.174 A 
ATOM      3  C3  BZF d   1      -0.083  -2.021   1.080  0.00  0.00    -0.012 A 
ATOM      4  C3A BZF d   1       0.191  -0.693   0.623  0.00  0.00    -0.107 A 
ATOM      5  C4  BZF d   1      -0.577   0.427   0.476  0.00  0.00     0.055 A 
ATOM      6  C5  BZF d   1       0.012   1.583   0.073  0.00  0.00    -0.016 A 
ATOM      7  C6  BZF d   1       1.365   1.657  -0.186  0.00  0.00     0.022 A 
ATOM      8  C7  BZF d   1       2.166   0.572  -0.059  0.00  0.00     0.029 A 
ATOM      9  C7A BZF d   1       1.568  -0.606   0.316  0.00  0.00     0.058 A 
ENDROOT
TORSDOF 0
ENDMDL
