MODEL 1
REMARK minimizedAffinity 3.220258
REMARK minimizedRMSD -1
REMARK  0 active torsions:
REMARK  status: ('A' for Active; 'I' for Inactive)
ROOT
ATOM      1  O1  BZF d   1      -1.550   0.207  -0.571  0.00  0.00    -0.204 OA
ATOM      2  C2  BZF d   1      -0.510   0.759   0.151  0.00  0.00     0.174 A 
ATOM      3  C3  BZF d   1      -0.035   1.863  -0.462  0.00  0.00    -0.012 A 
ATOM      4  C3A BZF d   1      -0.888   2.061  -1.594  0.00  0.00    -0.107 A 
ATOM      5  C4  BZF d   1      -0.934   3.003  -2.582  0.00  0.00     0.055 A 
ATOM      6  C5  BZF d   1      -1.846   2.869  -3.580  0.00  0.00    -0.016 A 
ATOM      7  C6  BZF d   1      -2.722   1.805  -3.625  0.00  0.00     0.022 A 
ATOM      8  C7  BZF d   1      -2.719   0.849  -2.665  0.00  0.00     0.029 A 
ATOM      9  C7A BZF d   1      -1.820   0.998  -1.637  0.00  0.00     0.058 A 
ENDROOT
TORSDOF 0
ENDMDL
