MODEL 1
REMARK minimizedAffinity -2.06515431
REMARK minimizedRMSD -1
REMARK  0 active torsions:
REMARK  status: ('A' for Active; 'I' for Inactive)
ROOT
ATOM      1  O1  BZF d   1       2.443  -2.362   0.506  0.00  0.00    -0.204 OA
ATOM      2  C2  BZF d   1       1.710  -3.128   1.391  0.00  0.00     0.174 A 
ATOM      3  C3  BZF d   1       0.486  -2.598   1.583  0.00  0.00    -0.012 A 
ATOM      4  C3A BZF d   1       0.418  -1.477   0.696  0.00  0.00    -0.107 A 
ATOM      5  C4  BZF d   1      -0.553  -0.558   0.418  0.00  0.00     0.055 A 
ATOM      6  C5  BZF d   1      -0.276   0.454  -0.446  0.00  0.00    -0.016 A 
ATOM      7  C6  BZF d   1       0.960   0.580  -1.044  0.00  0.00     0.022 A 
ATOM      8  C7  BZF d   1       1.953  -0.310  -0.803  0.00  0.00     0.029 A 
ATOM      9  C7A BZF d   1       1.666  -1.353   0.044  0.00  0.00     0.058 A 
ENDROOT
TORSDOF 0
ENDMDL
