MODEL 1
REMARK minimizedAffinity -3.12706304
REMARK minimizedRMSD -1
REMARK  0 active torsions:
REMARK  status: ('A' for Active; 'I' for Inactive)
ROOT
ATOM      1  O1  BZF d   1      -1.627   0.263  -3.425  0.00  0.00    -0.204 OA
ATOM      2  C2  BZF d   1      -2.248   1.471  -3.676  0.00  0.00     0.174 A 
ATOM      3  C3  BZF d   1      -2.263   2.241  -2.569  0.00  0.00    -0.012 A 
ATOM      4  C3A BZF d   1      -1.529   1.504  -1.588  0.00  0.00    -0.107 A 
ATOM      5  C4  BZF d   1      -1.185   1.752  -0.290  0.00  0.00     0.055 A 
ATOM      6  C5  BZF d   1      -0.527   0.794   0.414  0.00  0.00    -0.016 A 
ATOM      7  C6  BZF d   1      -0.202  -0.424  -0.146  0.00  0.00     0.022 A 
ATOM      8  C7  BZF d   1      -0.518  -0.715  -1.431  0.00  0.00     0.029 A 
ATOM      9  C7A BZF d   1      -1.154   0.264  -2.155  0.00  0.00     0.058 A 
ENDROOT
TORSDOF 0
ENDMDL
