MODEL 1
REMARK minimizedAffinity -3.28480124
REMARK minimizedRMSD -1
REMARK  0 active torsions:
REMARK  status: ('A' for Active; 'I' for Inactive)
ROOT
ATOM      1  O1  BZF d   1       1.126   1.182   0.200  0.00  0.00    -0.204 OA
ATOM      2  C2  BZF d   1      -0.156   1.658   0.000  0.00  0.00     0.174 A 
ATOM      3  C3  BZF d   1      -1.040   0.641  -0.058  0.00  0.00    -0.012 A 
ATOM      4  C3A BZF d   1      -0.275  -0.539   0.208  0.00  0.00    -0.107 A 
ATOM      5  C4  BZF d   1      -0.595  -1.863   0.302  0.00  0.00     0.055 A 
ATOM      6  C5  BZF d   1       0.398  -2.769   0.500  0.00  0.00    -0.016 A 
ATOM      7  C6  BZF d   1       1.720  -2.387   0.604  0.00  0.00     0.022 A 
ATOM      8  C7  BZF d   1       2.085  -1.085   0.522  0.00  0.00     0.029 A 
ATOM      9  C7A BZF d   1       1.080  -0.163   0.354  0.00  0.00     0.058 A 
ENDROOT
TORSDOF 0
ENDMDL
