MODEL 1
REMARK minimizedAffinity -2.70616007
REMARK minimizedRMSD -1
REMARK  0 active torsions:
REMARK  status: ('A' for Active; 'I' for Inactive)
ROOT
ATOM      1  O1  BZF d   1       2.084  -1.066   0.962  0.00  0.00    -0.204 OA
ATOM      2  C2  BZF d   1       1.523  -2.294   1.257  0.00  0.00     0.174 A 
ATOM      3  C3  BZF d   1       0.206  -2.300   0.967  0.00  0.00    -0.012 A 
ATOM      4  C3A BZF d   1      -0.054  -1.025   0.372  0.00  0.00    -0.107 A 
ATOM      5  C4  BZF d   1      -1.177  -0.440  -0.141  0.00  0.00     0.055 A 
ATOM      6  C5  BZF d   1      -1.110   0.844  -0.579  0.00  0.00    -0.016 A 
ATOM      7  C6  BZF d   1       0.059   1.574  -0.515  0.00  0.00     0.022 A 
ATOM      8  C7  BZF d   1       1.199   1.035  -0.020  0.00  0.00     0.029 A 
ATOM      9  C7A BZF d   1       1.143  -0.274   0.394  0.00  0.00     0.058 A 
ENDROOT
TORSDOF 0
ENDMDL
