MODEL 1
REMARK minimizedAffinity -3.65606499
REMARK minimizedRMSD -1
REMARK  0 active torsions:
REMARK  status: ('A' for Active; 'I' for Inactive)
ROOT
ATOM      1  O1  BZF d   1      -0.818   0.508  -0.104  0.00  0.00    -0.204 OA
ATOM      2  C2  BZF d   1       0.186   1.098  -0.847  0.00  0.00     0.174 A 
ATOM      3  C3  BZF d   1       1.326   0.382  -0.765  0.00  0.00    -0.012 A 
ATOM      4  C3A BZF d   1       0.989  -0.773   0.009  0.00  0.00    -0.107 A 
ATOM      5  C4  BZF d   1       1.697  -1.866   0.421  0.00  0.00     0.055 A 
ATOM      6  C5  BZF d   1       1.093  -2.779   1.227  0.00  0.00    -0.016 A 
ATOM      7  C6  BZF d   1      -0.214  -2.628   1.642  0.00  0.00     0.022 A 
ATOM      8  C7  BZF d   1      -0.958  -1.564   1.255  0.00  0.00     0.029 A 
ATOM      9  C7A BZF d   1      -0.360  -0.656   0.415  0.00  0.00     0.058 A 
ENDROOT
TORSDOF 0
ENDMDL
