MODEL 1
REMARK minimizedAffinity -5.44660139
REMARK minimizedRMSD -1
REMARK  0 active torsions:
REMARK  status: ('A' for Active; 'I' for Inactive)
ROOT
ATOM      1  O1  BZF d   1       2.066  -1.915   0.438  0.00  0.00    -0.204 OA
ATOM      2  C2  BZF d   1       1.341  -2.831   1.176  0.00  0.00     0.174 A 
ATOM      3  C3  BZF d   1       0.112  -2.354   1.458  0.00  0.00    -0.012 A 
ATOM      4  C3A BZF d   1       0.033  -1.096   0.781  0.00  0.00    -0.107 A 
ATOM      5  C4  BZF d   1      -0.946  -0.150   0.668  0.00  0.00     0.055 A 
ATOM      6  C5  BZF d   1      -0.680   1.000  -0.005  0.00  0.00    -0.016 A 
ATOM      7  C6  BZF d   1       0.555   1.239  -0.572  0.00  0.00     0.022 A 
ATOM      8  C7  BZF d   1       1.556   0.329  -0.491  0.00  0.00     0.029 A 
ATOM      9  C7A BZF d   1       1.279  -0.848   0.160  0.00  0.00     0.058 A 
ENDROOT
TORSDOF 0
ENDMDL
