MODEL 1
REMARK minimizedAffinity -4.85391808
REMARK minimizedRMSD -1
REMARK  0 active torsions:
REMARK  status: ('A' for Active; 'I' for Inactive)
ROOT
ATOM      1  O1  BZF d   1      -1.238  -0.098  -0.956  0.00  0.00    -0.204 OA
ATOM      2  C2  BZF d   1      -0.976   1.240  -0.729  0.00  0.00     0.174 A 
ATOM      3  C3  BZF d   1       0.191   1.394  -0.072  0.00  0.00    -0.012 A 
ATOM      4  C3A BZF d   1       0.736   0.076   0.044  0.00  0.00    -0.107 A 
ATOM      5  C4  BZF d   1       1.887  -0.420   0.586  0.00  0.00     0.055 A 
ATOM      6  C5  BZF d   1       2.084  -1.764   0.600  0.00  0.00    -0.016 A 
ATOM      7  C6  BZF d   1       1.151  -2.640   0.086  0.00  0.00     0.022 A 
ATOM      8  C7  BZF d   1      -0.004  -2.195  -0.467  0.00  0.00     0.029 A 
ATOM      9  C7A BZF d   1      -0.191  -0.835  -0.512  0.00  0.00     0.058 A 
ENDROOT
TORSDOF 0
ENDMDL
