MODEL 1
REMARK minimizedAffinity -4.09344625
REMARK minimizedRMSD -1
REMARK  0 active torsions:
REMARK  status: ('A' for Active; 'I' for Inactive)
ROOT
ATOM      1  O1  BZF d   1       0.462  -2.663   1.491  0.00  0.00    -0.204 OA
ATOM      2  C2  BZF d   1       1.603  -2.835   0.730  0.00  0.00     0.174 A 
ATOM      3  C3  BZF d   1       1.791  -1.784  -0.094  0.00  0.00    -0.012 A 
ATOM      4  C3A BZF d   1       0.750  -0.859   0.232  0.00  0.00    -0.107 A 
ATOM      5  C4  BZF d   1       0.416   0.381  -0.233  0.00  0.00     0.055 A 
ATOM      6  C5  BZF d   1      -0.703   0.987   0.245  0.00  0.00    -0.016 A 
ATOM      7  C6  BZF d   1      -1.511   0.381   1.185  0.00  0.00     0.022 A 
ATOM      8  C7  BZF d   1      -1.217  -0.846   1.681  0.00  0.00     0.029 A 
ATOM      9  C7A BZF d   1      -0.070  -1.447   1.223  0.00  0.00     0.058 A 
ENDROOT
TORSDOF 0
ENDMDL
