MODEL 1
REMARK minimizedAffinity -3.20768905
REMARK minimizedRMSD -1
REMARK  0 active torsions:
REMARK  status: ('A' for Active; 'I' for Inactive)
ROOT
ATOM      1  O1  BZF d   1      -1.324  -0.591  -0.419  0.00  0.00    -0.204 OA
ATOM      2  C2  BZF d   1      -1.112   0.773  -0.364  0.00  0.00     0.174 A 
ATOM      3  C3  BZF d   1       0.134   1.046   0.075  0.00  0.00    -0.012 A 
ATOM      4  C3A BZF d   1       0.770  -0.227   0.219  0.00  0.00    -0.107 A 
ATOM      5  C4  BZF d   1       2.021  -0.613   0.607  0.00  0.00     0.055 A 
ATOM      6  C5  BZF d   1       2.300  -1.939   0.711  0.00  0.00    -0.016 A 
ATOM      7  C6  BZF d   1       1.353  -2.904   0.442  0.00  0.00     0.022 A 
ATOM      8  C7  BZF d   1       0.099  -2.570   0.049  0.00  0.00     0.029 A 
ATOM      9  C7A BZF d   1      -0.177  -1.232  -0.089  0.00  0.00     0.058 A 
ENDROOT
TORSDOF 0
ENDMDL
