MODEL 1
REMARK minimizedAffinity -4.54766798
REMARK minimizedRMSD -1
REMARK  0 active torsions:
REMARK  status: ('A' for Active; 'I' for Inactive)
ROOT
ATOM      1  O1  BZF d   1       0.376  -2.389   1.751  0.00  0.00    -0.204 OA
ATOM      2  C2  BZF d   1       1.675  -2.835   1.605  0.00  0.00     0.174 A 
ATOM      3  C3  BZF d   1       2.386  -1.990   0.831  0.00  0.00    -0.012 A 
ATOM      4  C3A BZF d   1       1.500  -0.903   0.547  0.00  0.00    -0.107 A 
ATOM      5  C4  BZF d   1       1.632   0.255  -0.164  0.00  0.00     0.055 A 
ATOM      6  C5  BZF d   1       0.553   1.068  -0.309  0.00  0.00    -0.016 A 
ATOM      7  C6  BZF d   1      -0.673   0.751   0.237  0.00  0.00     0.022 A 
ATOM      8  C7  BZF d   1      -0.852  -0.385   0.955  0.00  0.00     0.029 A 
ATOM      9  C7A BZF d   1       0.245  -1.192   1.131  0.00  0.00     0.058 A 
ENDROOT
TORSDOF 0
ENDMDL
