MODEL 1
REMARK minimizedAffinity 3.93860316
REMARK minimizedRMSD -1
REMARK  0 active torsions:
REMARK  status: ('A' for Active; 'I' for Inactive)
ROOT
ATOM      1  O1  BZF d   1      -0.150   1.898   1.131  0.00  0.00    -0.204 OA
ATOM      2  C2  BZF d   1       0.742   1.943   0.077  0.00  0.00     0.174 A 
ATOM      3  C3  BZF d   1       1.003   0.701  -0.381  0.00  0.00    -0.012 A 
ATOM      4  C3A BZF d   1       0.155  -0.166   0.378  0.00  0.00    -0.107 A 
ATOM      5  C4  BZF d   1      -0.053  -1.516   0.373  0.00  0.00     0.055 A 
ATOM      6  C5  BZF d   1      -0.895  -2.057   1.291  0.00  0.00    -0.016 A 
ATOM      7  C6  BZF d   1      -1.542  -1.281   2.230  0.00  0.00     0.022 A 
ATOM      8  C7  BZF d   1      -1.372   0.063   2.271  0.00  0.00     0.029 A 
ATOM      9  C7A BZF d   1      -0.546   0.617   1.323  0.00  0.00     0.058 A 
ENDROOT
TORSDOF 0
ENDMDL
