MODEL 1
REMARK minimizedAffinity -2.13381076
REMARK minimizedRMSD -1
REMARK  0 active torsions:
REMARK  status: ('A' for Active; 'I' for Inactive)
ROOT
ATOM      1  O1  BZF d   1      -0.848  -0.639  -0.718  0.00  0.00    -0.204 OA
ATOM      2  C2  BZF d   1       0.079  -0.140   0.176  0.00  0.00     0.174 A 
ATOM      3  C3  BZF d   1       0.310   1.168  -0.054  0.00  0.00    -0.012 A 
ATOM      4  C3A BZF d   1      -0.593   1.532  -1.102  0.00  0.00    -0.107 A 
ATOM      5  C4  BZF d   1      -0.849   2.702  -1.758  0.00  0.00     0.055 A 
ATOM      6  C5  BZF d   1      -1.741   2.704  -2.783  0.00  0.00    -0.016 A 
ATOM      7  C6  BZF d   1      -2.390   1.554  -3.182  0.00  0.00     0.022 A 
ATOM      8  C7  BZF d   1      -2.173   0.370  -2.560  0.00  0.00     0.029 A 
ATOM      9  C7A BZF d   1      -1.297   0.372  -1.502  0.00  0.00     0.058 A 
ENDROOT
TORSDOF 0
ENDMDL
