MODEL 1
REMARK minimizedAffinity -2.12295175
REMARK minimizedRMSD -1
REMARK  0 active torsions:
REMARK  status: ('A' for Active; 'I' for Inactive)
ROOT
ATOM      1  O1  BZF d   1       0.321   1.112  -0.418  0.00  0.00    -0.204 OA
ATOM      2  C2  BZF d   1      -1.058   1.185  -0.377  0.00  0.00     0.174 A 
ATOM      3  C3  BZF d   1      -1.588   0.009   0.017  0.00  0.00    -0.012 A 
ATOM      4  C3A BZF d   1      -0.467  -0.825   0.324  0.00  0.00    -0.107 A 
ATOM      5  C4  BZF d   1      -0.348  -2.106   0.782  0.00  0.00     0.055 A 
ATOM      6  C5  BZF d   1       0.892  -2.650   0.907  0.00  0.00    -0.016 A 
ATOM      7  C6  BZF d   1       2.031  -1.944   0.579  0.00  0.00     0.022 A 
ATOM      8  C7  BZF d   1       1.963  -0.668   0.126  0.00  0.00     0.029 A 
ATOM      9  C7A BZF d   1       0.714  -0.105   0.030  0.00  0.00     0.058 A 
ENDROOT
TORSDOF 0
ENDMDL
