MODEL 1
REMARK minimizedAffinity 7.1847105
REMARK minimizedRMSD -1
REMARK  1 active torsions:
REMARK  status: ('A' for Active; 'I' for Inactive)
REMARK    1  A    between atoms: C1_2  and  C2_3 
ROOT
ATOM      1  C2  UNL d   1       3.160   3.903   4.648  0.00  0.00    -0.076 A 
ATOM      2  C3  UNL d   1       3.813   3.741   5.882  0.00  0.00     0.004 A 
ATOM      3  C4  UNL d   1       4.932   2.918   6.000  0.00  0.00    -0.003 A 
ATOM      4  C5  UNL d   1       5.417   2.244   4.885  0.00  0.00     0.000 A 
ATOM      5  C6  UNL d   1       4.792   2.406   3.648  0.00  0.00     0.000 A 
ATOM      6  C7  UNL d   1       3.673   3.245   3.509  0.00  0.00    -0.073 A 
ATOM      7  C8  UNL d   1       3.035   3.378   2.154  0.00  0.00     0.078 C 
ENDROOT
BRANCH   1   8
ATOM      8  C1  UNL d   1       1.935   4.786   4.587  0.00  0.00     0.053 C 
ATOM      9  C   UNL d   1       1.433   5.183   5.966  0.00  0.00     0.018 C 
ENDBRANCH   1   8
TORSDOF 1
ENDMDL
