MODEL 1
REMARK minimizedAffinity 3.11517668
REMARK minimizedRMSD -1
REMARK  1 active torsions:
REMARK  status: ('A' for Active; 'I' for Inactive)
REMARK    1  A    between atoms: C1_2  and  C2_3 
ROOT
ATOM      1  C2  UNL d   1       3.788   1.299  -0.038  0.00  0.00    -0.076 A 
ATOM      2  C3  UNL d   1       3.116   2.213   0.792  0.00  0.00     0.004 A 
ATOM      3  C4  UNL d   1       3.820   3.037   1.669  0.00  0.00    -0.003 A 
ATOM      4  C5  UNL d   1       5.207   2.961   1.729  0.00  0.00     0.000 A 
ATOM      5  C6  UNL d   1       5.891   2.073   0.901  0.00  0.00     0.000 A 
ATOM      6  C7  UNL d   1       5.198   1.246  -0.000  0.00  0.00    -0.073 A 
ATOM      7  C8  UNL d   1       5.986   0.302  -0.866  0.00  0.00     0.078 C 
ENDROOT
BRANCH   1   8
ATOM      8  C1  UNL d   1       2.971   0.411  -0.949  0.00  0.00     0.053 C 
ATOM      9  C   UNL d   1       2.899  -1.024  -0.453  0.00  0.00     0.018 C 
ENDBRANCH   1   8
TORSDOF 1
ENDMDL
