MODEL 1
REMARK minimizedAffinity 2.30065227
REMARK minimizedRMSD -1
REMARK  1 active torsions:
REMARK  status: ('A' for Active; 'I' for Inactive)
REMARK    1  A    between atoms: C1_2  and  C2_3 
ROOT
ATOM      1  C2  UNL d   1       4.720   1.356  -1.579  0.00  0.00    -0.076 A 
ATOM      2  C3  UNL d   1       5.647   2.411  -1.643  0.00  0.00     0.004 A 
ATOM      3  C4  UNL d   1       5.917   3.197  -0.524  0.00  0.00    -0.003 A 
ATOM      4  C5  UNL d   1       5.265   2.940   0.677  0.00  0.00     0.000 A 
ATOM      5  C6  UNL d   1       4.356   1.887   0.763  0.00  0.00     0.000 A 
ATOM      6  C7  UNL d   1       4.084   1.074  -0.351  0.00  0.00    -0.073 A 
ATOM      7  C8  UNL d   1       3.089  -0.044  -0.203  0.00  0.00     0.078 C 
ENDROOT
BRANCH   1   8
ATOM      8  C1  UNL d   1       4.447   0.555  -2.832  0.00  0.00     0.053 C 
ATOM      9  C   UNL d   1       3.306  -0.435  -2.654  0.00  0.00     0.018 C 
ENDBRANCH   1   8
TORSDOF 1
ENDMDL
