MODEL 1
REMARK minimizedAffinity 7.56591892
REMARK minimizedRMSD -1
REMARK  1 active torsions:
REMARK  status: ('A' for Active; 'I' for Inactive)
REMARK    1  A    between atoms: C1_2  and  C2_3 
ROOT
ATOM      1  C2  UNL d   1      -3.270  -0.203  -1.470  0.00  0.00    -0.076 A 
ATOM      2  C3  UNL d   1      -4.655  -0.409  -1.347  0.00  0.00     0.004 A 
ATOM      3  C4  UNL d   1      -5.358   0.077  -0.246  0.00  0.00    -0.003 A 
ATOM      4  C5  UNL d   1      -4.687   0.779   0.750  0.00  0.00     0.000 A 
ATOM      5  C6  UNL d   1      -3.316   1.008   0.636  0.00  0.00     0.000 A 
ATOM      6  C7  UNL d   1      -2.595   0.538  -0.476  0.00  0.00    -0.073 A 
ATOM      7  C8  UNL d   1      -1.117   0.809  -0.545  0.00  0.00     0.078 C 
ENDROOT
BRANCH   1   8
ATOM      8  C1  UNL d   1      -2.556  -0.778  -2.673  0.00  0.00     0.053 C 
ATOM      9  C   UNL d   1      -2.734   0.076  -3.919  0.00  0.00     0.018 C 
ENDBRANCH   1   8
TORSDOF 1
ENDMDL
