MODEL 1
REMARK minimizedAffinity 3.55397534
REMARK minimizedRMSD -1
REMARK  1 active torsions:
REMARK  status: ('A' for Active; 'I' for Inactive)
REMARK    1  A    between atoms: C1_2  and  C2_3 
ROOT
ATOM      1  C2  UNL d   1       4.079  -0.051  -0.598  0.00  0.00    -0.076 A 
ATOM      2  C3  UNL d   1       5.421  -0.012  -0.183  0.00  0.00     0.004 A 
ATOM      3  C4  UNL d   1       5.829   0.835   0.847  0.00  0.00    -0.003 A 
ATOM      4  C5  UNL d   1       4.901   1.656   1.477  0.00  0.00     0.000 A 
ATOM      5  C6  UNL d   1       3.562   1.618   1.089  0.00  0.00     0.000 A 
ATOM      6  C7  UNL d   1       3.131   0.757   0.065  0.00  0.00    -0.073 A 
ATOM      7  C8  UNL d   1       1.676   0.761  -0.317  0.00  0.00     0.078 C 
ENDROOT
BRANCH   1   8
ATOM      8  C1  UNL d   1       3.701  -0.970  -1.738  0.00  0.00     0.053 C 
ATOM      9  C   UNL d   1       3.020  -2.243  -1.259  0.00  0.00     0.018 C 
ENDBRANCH   1   8
TORSDOF 1
ENDMDL
