MODEL 1
REMARK minimizedAffinity 10.7032871
REMARK minimizedRMSD -1
REMARK  1 active torsions:
REMARK  status: ('A' for Active; 'I' for Inactive)
REMARK    1  A    between atoms: C1_2  and  C2_3 
ROOT
ATOM      1  C2  UNL d   1       3.960   1.464  -0.060  0.00  0.00    -0.076 A 
ATOM      2  C3  UNL d   1       3.377   2.667   0.373  0.00  0.00     0.004 A 
ATOM      3  C4  UNL d   1       4.090   3.566   1.165  0.00  0.00    -0.003 A 
ATOM      4  C5  UNL d   1       5.398   3.277   1.536  0.00  0.00     0.000 A 
ATOM      5  C6  UNL d   1       5.999   2.096   1.101  0.00  0.00     0.000 A 
ATOM      6  C7  UNL d   1       5.299   1.186   0.289  0.00  0.00    -0.073 A 
ATOM      7  C8  UNL d   1       5.994  -0.075  -0.146  0.00  0.00     0.078 C 
ENDROOT
BRANCH   1   8
ATOM      8  C1  UNL d   1       3.129   0.515  -0.893  0.00  0.00     0.053 C 
ATOM      9  C   UNL d   1       2.608  -0.665  -0.088  0.00  0.00     0.018 C 
ENDBRANCH   1   8
TORSDOF 1
ENDMDL
