MODEL 1
REMARK minimizedAffinity 15.7162037
REMARK minimizedRMSD -1
REMARK  1 active torsions:
REMARK  status: ('A' for Active; 'I' for Inactive)
REMARK    1  A    between atoms: C1_2  and  C2_3 
ROOT
ATOM      1  C2  UNL d   1      -5.234   2.691  -1.012  0.00  0.00    -0.076 A 
ATOM      2  C3  UNL d   1      -4.499   3.798  -0.553  0.00  0.00     0.004 A 
ATOM      3  C4  UNL d   1      -3.812   3.751   0.659  0.00  0.00    -0.003 A 
ATOM      4  C5  UNL d   1      -3.848   2.595   1.431  0.00  0.00     0.000 A 
ATOM      5  C6  UNL d   1      -4.558   1.481   0.982  0.00  0.00     0.000 A 
ATOM      6  C7  UNL d   1      -5.243   1.507  -0.245  0.00  0.00    -0.073 A 
ATOM      7  C8  UNL d   1      -5.997   0.279  -0.677  0.00  0.00     0.078 C 
ENDROOT
BRANCH   1   8
ATOM      8  C1  UNL d   1      -5.982   2.811  -2.321  0.00  0.00     0.053 C 
ATOM      9  C   UNL d   1      -5.604   4.064  -3.096  0.00  0.00     0.018 C 
ENDBRANCH   1   8
TORSDOF 1
ENDMDL
