MODEL 1
REMARK minimizedAffinity -6.08156681
REMARK minimizedRMSD -1
REMARK  2 active torsions:
REMARK  status: ('A' for Active; 'I' for Inactive)
REMARK    1  A    between atoms: C2'_3  and  C1'_4 
REMARK    2  A    between atoms: C1'_4  and  C1_5 
ROOT
ATOM      1  C1  I4B d   1       0.107   0.234  -0.425  0.00  0.00    -0.075 A 
ATOM      2  C2  I4B d   1      -0.275   1.492  -0.821  0.00  0.00     0.003 A 
ATOM      3  C3  I4B d   1      -1.103   2.281   0.014  0.00  0.00     0.002 A 
ATOM      4  C4  I4B d   1      -1.563   1.758   1.205  0.00  0.00    -0.004 A 
ATOM      5  C5  I4B d   1      -1.157   0.492   1.615  0.00  0.00     0.002 A 
ATOM      6  C6  I4B d   1      -0.306  -0.270   0.801  0.00  0.00     0.003 A 
ENDROOT
BRANCH   1   7
ATOM      7  C1' I4B d   1       0.954  -0.585  -1.346  0.00  0.00     0.060 C 
BRANCH   7   8
ATOM      8  C2' I4B d   1       0.402  -1.996  -1.357  0.00  0.00    -0.013 C 
ATOM      9  C4' I4B d   1      -0.520  -2.212  -2.528  0.00  0.00     0.013 C 
ATOM     10  C3' I4B d   1       1.561  -2.947  -1.398  0.00  0.00     0.013 C 
ENDBRANCH   7   8
ENDBRANCH   1   7
TORSDOF 2
ENDMDL
