MODEL 1
REMARK minimizedAffinity -2.21520734
REMARK minimizedRMSD -1
REMARK  2 active torsions:
REMARK  status: ('A' for Active; 'I' for Inactive)
REMARK    1  A    between atoms: C2'_3  and  C1'_4 
REMARK    2  A    between atoms: C1'_4  and  C1_5 
ROOT
ATOM      1  C1  I4B d   1       0.886  -1.660  -1.904  0.00  0.00    -0.075 A 
ATOM      2  C2  I4B d   1       0.943  -1.202  -3.197  0.00  0.00     0.003 A 
ATOM      3  C3  I4B d   1       0.767  -2.097  -4.280  0.00  0.00     0.002 A 
ATOM      4  C4  I4B d   1       0.588  -3.442  -4.027  0.00  0.00    -0.004 A 
ATOM      5  C5  I4B d   1       0.508  -3.901  -2.716  0.00  0.00     0.002 A 
ATOM      6  C6  I4B d   1       0.645  -3.003  -1.647  0.00  0.00     0.003 A 
ENDROOT
BRANCH   1   7
ATOM      7  C1' I4B d   1       1.108  -0.692  -0.786  0.00  0.00     0.060 C 
BRANCH   7   8
ATOM      8  C2' I4B d   1      -0.196  -0.547  -0.028  0.00  0.00    -0.013 C 
ATOM      9  C4' I4B d   1      -0.017  -0.870   1.432  0.00  0.00     0.013 C 
ATOM     10  C3' I4B d   1      -0.687   0.857  -0.216  0.00  0.00     0.013 C 
ENDBRANCH   7   8
ENDBRANCH   1   7
TORSDOF 2
ENDMDL
