MODEL 1
REMARK minimizedAffinity -3.972615
REMARK minimizedRMSD -1
REMARK  2 active torsions:
REMARK  status: ('A' for Active; 'I' for Inactive)
REMARK    1  A    between atoms: C2'_3  and  C1'_4 
REMARK    2  A    between atoms: C1'_4  and  C1_5 
ROOT
ATOM      1  C1  I4B d   1       0.400   0.014  -0.145  0.00  0.00    -0.075 A 
ATOM      2  C2  I4B d   1       0.060   1.242  -0.655  0.00  0.00     0.003 A 
ATOM      3  C3  I4B d   1      -0.845   2.079   0.042  0.00  0.00     0.002 A 
ATOM      4  C4  I4B d   1      -1.421   1.630   1.213  0.00  0.00    -0.004 A 
ATOM      5  C5  I4B d   1      -1.058   0.394   1.741  0.00  0.00     0.002 A 
ATOM      6  C6  I4B d   1      -0.133  -0.414   1.064  0.00  0.00     0.003 A 
ENDROOT
BRANCH   1   7
ATOM      7  C1' I4B d   1       1.333  -0.858  -0.924  0.00  0.00     0.060 C 
BRANCH   7   8
ATOM      8  C2' I4B d   1       0.670  -2.209  -1.103  0.00  0.00    -0.013 C 
ATOM      9  C4' I4B d   1       0.161  -2.384  -2.510  0.00  0.00     0.013 C 
ATOM     10  C3' I4B d   1       1.673  -3.267  -0.754  0.00  0.00     0.013 C 
ENDBRANCH   7   8
ENDBRANCH   1   7
TORSDOF 2
ENDMDL
