MODEL 1
REMARK minimizedAffinity -4.56108904
REMARK minimizedRMSD -1
REMARK  2 active torsions:
REMARK  status: ('A' for Active; 'I' for Inactive)
REMARK    1  A    between atoms: C2'_3  and  C1'_4 
REMARK    2  A    between atoms: C1'_4  and  C1_5 
ROOT
ATOM      1  C1  I4B d   1       0.110   0.062  -0.134  0.00  0.00    -0.075 A 
ATOM      2  C2  I4B d   1      -0.422   1.294  -0.426  0.00  0.00     0.003 A 
ATOM      3  C3  I4B d   1      -1.292   1.930   0.493  0.00  0.00     0.002 A 
ATOM      4  C4  I4B d   1      -1.640   1.281   1.660  0.00  0.00    -0.004 A 
ATOM      5  C5  I4B d   1      -1.082   0.043   1.964  0.00  0.00     0.002 A 
ATOM      6  C6  I4B d   1      -0.191  -0.565   1.067  0.00  0.00     0.003 A 
ENDROOT
BRANCH   1   7
ATOM      7  C1' I4B d   1       0.999  -0.595  -1.141  0.00  0.00     0.060 C 
BRANCH   7   8
ATOM      8  C2' I4B d   1       0.481  -2.000  -1.375  0.00  0.00    -0.013 C 
ATOM      9  C4' I4B d   1       0.060  -2.194  -2.808  0.00  0.00     0.013 C 
ATOM     10  C3' I4B d   1       1.566  -2.963  -0.994  0.00  0.00     0.013 C 
ENDBRANCH   7   8
ENDBRANCH   1   7
TORSDOF 2
ENDMDL
