MODEL 1
REMARK minimizedAffinity -6.55638933
REMARK minimizedRMSD -1
REMARK  2 active torsions:
REMARK  status: ('A' for Active; 'I' for Inactive)
REMARK    1  A    between atoms: C2'_3  and  C1'_4 
REMARK    2  A    between atoms: C1'_4  and  C1_5 
ROOT
ATOM      1  C1  I4B d   1      -0.228   0.246  -0.004  0.00  0.00    -0.075 A 
ATOM      2  C2  I4B d   1      -0.917   1.279  -0.588  0.00  0.00     0.003 A 
ATOM      3  C3  I4B d   1      -1.935   1.953   0.129  0.00  0.00     0.002 A 
ATOM      4  C4  I4B d   1      -2.264   1.530   1.400  0.00  0.00    -0.004 A 
ATOM      5  C5  I4B d   1      -1.549   0.498   2.000  0.00  0.00     0.002 A 
ATOM      6  C6  I4B d   1      -0.516  -0.141   1.299  0.00  0.00     0.003 A 
ENDROOT
BRANCH   1   7
ATOM      7  C1' I4B d   1       0.819  -0.465  -0.801  0.00  0.00     0.060 C 
BRANCH   7   8
ATOM      8  C2' I4B d   1       0.304  -1.856  -1.113  0.00  0.00    -0.013 C 
ATOM      9  C4' I4B d   1      -0.411  -1.888  -2.439  0.00  0.00     0.013 C 
ATOM     10  C3' I4B d   1       1.473  -2.795  -1.105  0.00  0.00     0.013 C 
ENDBRANCH   7   8
ENDBRANCH   1   7
TORSDOF 2
ENDMDL
