MODEL 1
REMARK minimizedAffinity -3.64291549
REMARK minimizedRMSD -1
REMARK  2 active torsions:
REMARK  status: ('A' for Active; 'I' for Inactive)
REMARK    1  A    between atoms: C2'_3  and  C1'_4 
REMARK    2  A    between atoms: C1'_4  and  C1_5 
ROOT
ATOM      1  C1  I4B d   1       0.490   0.055  -0.648  0.00  0.00    -0.075 A 
ATOM      2  C2  I4B d   1       1.549   0.787  -1.123  0.00  0.00     0.003 A 
ATOM      3  C3  I4B d   1       1.373   2.144  -1.487  0.00  0.00     0.002 A 
ATOM      4  C4  I4B d   1       0.117   2.711  -1.407  0.00  0.00    -0.004 A 
ATOM      5  C5  I4B d   1      -0.951   1.975  -0.903  0.00  0.00     0.002 A 
ATOM      6  C6  I4B d   1      -0.762   0.642  -0.510  0.00  0.00     0.003 A 
ENDROOT
BRANCH   1   7
ATOM      7  C1' I4B d   1       0.704  -1.385  -0.305  0.00  0.00     0.060 C 
BRANCH   7   8
ATOM      8  C2' I4B d   1       1.206  -2.091  -1.548  0.00  0.00    -0.013 C 
ATOM      9  C4' I4B d   1       1.548  -3.529  -1.257  0.00  0.00     0.013 C 
ATOM     10  C3' I4B d   1       0.141  -1.990  -2.599  0.00  0.00     0.013 C 
ENDBRANCH   7   8
ENDBRANCH   1   7
TORSDOF 2
ENDMDL
