MODEL 1
REMARK minimizedAffinity -0.383711576
REMARK minimizedRMSD -1
REMARK  2 active torsions:
REMARK  status: ('A' for Active; 'I' for Inactive)
REMARK    1  A    between atoms: C2'_3  and  C1'_4 
REMARK    2  A    between atoms: C1'_4  and  C1_5 
ROOT
ATOM      1  C1  I4B d   1      -0.240  -0.516  -0.493  0.00  0.00    -0.075 A 
ATOM      2  C2  I4B d   1       0.585  -0.141   0.538  0.00  0.00     0.003 A 
ATOM      3  C3  I4B d   1       0.168   0.848   1.461  0.00  0.00     0.002 A 
ATOM      4  C4  I4B d   1      -1.053   1.469   1.287  0.00  0.00    -0.004 A 
ATOM      5  C5  I4B d   1      -1.897   1.071   0.254  0.00  0.00     0.002 A 
ATOM      6  C6  I4B d   1      -1.494   0.064  -0.634  0.00  0.00     0.003 A 
ENDROOT
BRANCH   1   7
ATOM      7  C1' I4B d   1       0.246  -1.540  -1.469  0.00  0.00     0.060 C 
BRANCH   7   8
ATOM      8  C2' I4B d   1      -0.763  -2.671  -1.500  0.00  0.00    -0.013 C 
ATOM      9  C4' I4B d   1      -1.241  -2.936  -2.903  0.00  0.00     0.013 C 
ATOM     10  C3' I4B d   1      -0.113  -3.887  -0.910  0.00  0.00     0.013 C 
ENDBRANCH   7   8
ENDBRANCH   1   7
TORSDOF 2
ENDMDL
