MODEL 1
REMARK minimizedAffinity -2.86632729
REMARK minimizedRMSD -1
REMARK  2 active torsions:
REMARK  status: ('A' for Active; 'I' for Inactive)
REMARK    1  A    between atoms: C2'_3  and  C1'_4 
REMARK    2  A    between atoms: C1'_4  and  C1_5 
ROOT
ATOM      1  C1  I4B d   1       0.347  -0.201  -0.007  0.00  0.00    -0.075 A 
ATOM      2  C2  I4B d   1      -0.140   1.053  -0.280  0.00  0.00     0.003 A 
ATOM      3  C3  I4B d   1      -1.031   1.684   0.622  0.00  0.00     0.002 A 
ATOM      4  C4  I4B d   1      -1.446   1.009   1.752  0.00  0.00    -0.004 A 
ATOM      5  C5  I4B d   1      -0.933  -0.253   2.039  0.00  0.00     0.002 A 
ATOM      6  C6  I4B d   1      -0.022  -0.857   1.160  0.00  0.00     0.003 A 
ENDROOT
BRANCH   1   7
ATOM      7  C1' I4B d   1       1.260  -0.851  -0.997  0.00  0.00     0.060 C 
BRANCH   7   8
ATOM      8  C2' I4B d   1       0.765  -2.263  -1.232  0.00  0.00    -0.013 C 
ATOM      9  C4' I4B d   1      -0.132  -2.333  -2.440  0.00  0.00     0.013 C 
ATOM     10  C3' I4B d   1       1.961  -3.152  -1.394  0.00  0.00     0.013 C 
ENDBRANCH   7   8
ENDBRANCH   1   7
TORSDOF 2
ENDMDL
