MODEL 1
REMARK minimizedAffinity -3.85301113
REMARK minimizedRMSD -1
REMARK  2 active torsions:
REMARK  status: ('A' for Active; 'I' for Inactive)
REMARK    1  A    between atoms: C2'_3  and  C1'_4 
REMARK    2  A    between atoms: C1'_4  and  C1_5 
ROOT
ATOM      1  C1  I4B d   1      -0.207   0.728   0.530  0.00  0.00    -0.075 A 
ATOM      2  C2  I4B d   1      -0.097   1.253   1.794  0.00  0.00     0.003 A 
ATOM      3  C3  I4B d   1      -1.059   2.179   2.266  0.00  0.00     0.002 A 
ATOM      4  C4  I4B d   1      -2.078   2.587   1.430  0.00  0.00    -0.004 A 
ATOM      5  C5  I4B d   1      -2.200   2.036   0.157  0.00  0.00     0.002 A 
ATOM      6  C6  I4B d   1      -1.265   1.091  -0.291  0.00  0.00     0.003 A 
ENDROOT
BRANCH   1   7
ATOM      7  C1' I4B d   1       0.845  -0.223   0.052  0.00  0.00     0.060 C 
BRANCH   7   8
ATOM      8  C2' I4B d   1       0.635  -1.546   0.759  0.00  0.00    -0.013 C 
ATOM      9  C4' I4B d   1       0.860  -1.414   2.242  0.00  0.00     0.013 C 
ATOM     10  C3' I4B d   1      -0.759  -2.013   0.462  0.00  0.00     0.013 C 
ENDBRANCH   7   8
ENDBRANCH   1   7
TORSDOF 2
ENDMDL
