MODEL 1
REMARK minimizedAffinity -5.96675396
REMARK minimizedRMSD -1
REMARK  2 active torsions:
REMARK  status: ('A' for Active; 'I' for Inactive)
REMARK    1  A    between atoms: C2'_3  and  C1'_4 
REMARK    2  A    between atoms: C1'_4  and  C1_5 
ROOT
ATOM      1  C1  I4B d   1       0.310  -0.192  -0.200  0.00  0.00    -0.075 A 
ATOM      2  C2  I4B d   1       0.292  -0.688   1.080  0.00  0.00     0.003 A 
ATOM      3  C3  I4B d   1      -0.607  -0.158   2.037  0.00  0.00     0.002 A 
ATOM      4  C4  I4B d   1      -1.429   0.894   1.687  0.00  0.00    -0.004 A 
ATOM      5  C5  I4B d   1      -1.425   1.380   0.383  0.00  0.00     0.002 A 
ATOM      6  C6  I4B d   1      -0.559   0.826  -0.570  0.00  0.00     0.003 A 
ENDROOT
BRANCH   1   7
ATOM      7  C1' I4B d   1       1.295  -0.752  -1.176  0.00  0.00     0.060 C 
BRANCH   7   8
ATOM      8  C2' I4B d   1       0.836  -2.146  -1.555  0.00  0.00    -0.013 C 
ATOM      9  C4' I4B d   1       0.569  -2.249  -3.033  0.00  0.00     0.013 C 
ATOM     10  C3' I4B d   1       1.897  -3.115  -1.127  0.00  0.00     0.013 C 
ENDBRANCH   7   8
ENDBRANCH   1   7
TORSDOF 2
ENDMDL
