MODEL 1
REMARK minimizedAffinity -4.86217451
REMARK minimizedRMSD -1
REMARK  2 active torsions:
REMARK  status: ('A' for Active; 'I' for Inactive)
REMARK    1  A    between atoms: C2'_3  and  C1'_4 
REMARK    2  A    between atoms: C1'_4  and  C1_5 
ROOT
ATOM      1  C1  I4B d   1       0.319  -0.529  -0.494  0.00  0.00    -0.075 A 
ATOM      2  C2  I4B d   1      -0.241   0.597  -1.045  0.00  0.00     0.003 A 
ATOM      3  C3  I4B d   1      -1.114   1.407  -0.279  0.00  0.00     0.002 A 
ATOM      4  C4  I4B d   1      -1.436   1.030   1.008  0.00  0.00    -0.004 A 
ATOM      5  C5  I4B d   1      -0.849  -0.099   1.573  0.00  0.00     0.002 A 
ATOM      6  C6  I4B d   1       0.044  -0.877   0.822  0.00  0.00     0.003 A 
ENDROOT
BRANCH   1   7
ATOM      7  C1' I4B d   1       1.210  -1.379  -1.343  0.00  0.00     0.060 C 
BRANCH   7   8
ATOM      8  C2' I4B d   1       0.339  -2.129  -2.330  0.00  0.00    -0.013 C 
ATOM      9  C4' I4B d   1       0.755  -1.846  -3.749  0.00  0.00     0.013 C 
ATOM     10  C3' I4B d   1       0.439  -3.592  -2.018  0.00  0.00     0.013 C 
ENDBRANCH   7   8
ENDBRANCH   1   7
TORSDOF 2
ENDMDL
