MODEL 1
REMARK minimizedAffinity -4.63124228
REMARK minimizedRMSD -1
REMARK  2 active torsions:
REMARK  status: ('A' for Active; 'I' for Inactive)
REMARK    1  A    between atoms: C2'_3  and  C1'_4 
REMARK    2  A    between atoms: C1'_4  and  C1_5 
ROOT
ATOM      1  C1  I4B d   1       0.393   0.029  -0.123  0.00  0.00    -0.075 A 
ATOM      2  C2  I4B d   1      -0.056   1.127  -0.814  0.00  0.00     0.003 A 
ATOM      3  C3  I4B d   1      -0.951   2.037  -0.202  0.00  0.00     0.002 A 
ATOM      4  C4  I4B d   1      -1.409   1.785   1.076  0.00  0.00    -0.004 A 
ATOM      5  C5  I4B d   1      -0.934   0.684   1.783  0.00  0.00     0.002 A 
ATOM      6  C6  I4B d   1      -0.018  -0.193   1.185  0.00  0.00     0.003 A 
ENDROOT
BRANCH   1   7
ATOM      7  C1' I4B d   1       1.313  -0.929  -0.811  0.00  0.00     0.060 C 
BRANCH   7   8
ATOM      8  C2' I4B d   1       0.504  -2.145  -1.214  0.00  0.00    -0.013 C 
ATOM      9  C4' I4B d   1      -0.027  -2.008  -2.616  0.00  0.00     0.013 C 
ATOM     10  C3' I4B d   1       1.385  -3.352  -1.084  0.00  0.00     0.013 C 
ENDBRANCH   7   8
ENDBRANCH   1   7
TORSDOF 2
ENDMDL
