MODEL 1
REMARK minimizedAffinity 1.90304697
REMARK minimizedRMSD -1
REMARK  1 active torsions:
REMARK  status: ('A' for Active; 'I' for Inactive)
REMARK    1  A    between atoms: C1_2  and  C2_3 
ROOT
ATOM      1  C2  UNL d   1       1.977   0.308  -1.864  0.00  0.00    -0.077 A 
ATOM      2  C3  UNL d   1       1.290  -0.913  -1.916  0.00  0.00     0.002 A 
ATOM      3  C4  UNL d   1       0.613  -1.391  -0.792  0.00  0.00     0.002 A 
ATOM      4  C5  UNL d   1       0.612  -0.652   0.389  0.00  0.00    -0.004 A 
ATOM      5  C6  UNL d   1       1.294   0.563   0.452  0.00  0.00     0.002 A 
ATOM      6  C7  UNL d   1       1.972   1.041  -0.670  0.00  0.00     0.002 A 
ENDROOT
BRANCH   1   7
ATOM      7  C1  UNL d   1       2.667   0.849  -3.089  0.00  0.00     0.055 C 
ATOM      8  C   UNL d   1       1.753   0.800  -4.305  0.00  0.00     0.019 C 
ENDBRANCH   1   7
TORSDOF 1
ENDMDL
