MODEL 1
REMARK minimizedAffinity 7.8720932
REMARK minimizedRMSD -1
REMARK  1 active torsions:
REMARK  status: ('A' for Active; 'I' for Inactive)
REMARK    1  A    between atoms: C1_2  and  C2_3 
ROOT
ATOM      1  C2  UNL d   1       3.823   3.004  -5.041  0.00  0.00    -0.077 A 
ATOM      2  C3  UNL d   1       4.915   2.315  -4.496  0.00  0.00     0.002 A 
ATOM      3  C4  UNL d   1       5.999   3.016  -3.965  0.00  0.00     0.002 A 
ATOM      4  C5  UNL d   1       5.999   4.410  -3.970  0.00  0.00    -0.004 A 
ATOM      5  C6  UNL d   1       4.919   5.104  -4.513  0.00  0.00     0.002 A 
ATOM      6  C7  UNL d   1       3.835   4.404  -5.045  0.00  0.00     0.002 A 
ENDROOT
BRANCH   1   7
ATOM      7  C1  UNL d   1       2.631   2.249  -5.570  0.00  0.00     0.055 C 
ATOM      8  C   UNL d   1       2.208   1.143  -4.614  0.00  0.00     0.019 C 
ENDBRANCH   1   7
TORSDOF 1
ENDMDL
