MODEL 1
REMARK minimizedAffinity -4.75481176
REMARK minimizedRMSD -1
REMARK  1 active torsions:
REMARK  status: ('A' for Active; 'I' for Inactive)
REMARK    1  A    between atoms: C1_2  and  C2_3 
ROOT
ATOM      1  C2  UNL d   1       5.816   0.449   4.874  0.00  0.00    -0.077 A 
ATOM      2  C3  UNL d   1       5.794  -0.782   5.544  0.00  0.00     0.002 A 
ATOM      3  C4  UNL d   1       5.737  -1.978   4.825  0.00  0.00     0.002 A 
ATOM      4  C5  UNL d   1       5.706  -1.954   3.432  0.00  0.00    -0.004 A 
ATOM      5  C6  UNL d   1       5.725  -0.734   2.756  0.00  0.00     0.002 A 
ATOM      6  C7  UNL d   1       5.781   0.461   3.474  0.00  0.00     0.002 A 
ENDROOT
BRANCH   1   7
ATOM      7  C1  UNL d   1       5.927   1.737   5.647  0.00  0.00     0.055 C 
ATOM      8  C   UNL d   1       5.163   2.861   4.962  0.00  0.00     0.019 C 
ENDBRANCH   1   7
TORSDOF 1
ENDMDL
