MODEL 1
REMARK minimizedAffinity -4.33376026
REMARK minimizedRMSD -1
REMARK  1 active torsions:
REMARK  status: ('A' for Active; 'I' for Inactive)
REMARK    1  A    between atoms: C1_2  and  C2_3 
ROOT
ATOM      1  C2  UNL d   1       5.258  -1.522   4.572  0.00  0.00    -0.077 A 
ATOM      2  C3  UNL d   1       5.319  -0.811   3.365  0.00  0.00     0.002 A 
ATOM      3  C4  UNL d   1       5.686   0.536   3.357  0.00  0.00     0.002 A 
ATOM      4  C5  UNL d   1       6.000   1.182   4.551  0.00  0.00    -0.004 A 
ATOM      5  C6  UNL d   1       5.940   0.484   5.757  0.00  0.00     0.002 A 
ATOM      6  C7  UNL d   1       5.572  -0.862   5.767  0.00  0.00     0.002 A 
ENDROOT
BRANCH   1   7
ATOM      7  C1  UNL d   1       4.910  -2.988   4.578  0.00  0.00     0.055 C 
ATOM      8  C   UNL d   1       5.602  -3.716   5.721  0.00  0.00     0.019 C 
ENDBRANCH   1   7
TORSDOF 1
ENDMDL
