MODEL 1
REMARK minimizedAffinity -4.10040474
REMARK minimizedRMSD -1
REMARK  1 active torsions:
REMARK  status: ('A' for Active; 'I' for Inactive)
REMARK    1  A    between atoms: C1_2  and  C2_3 
ROOT
ATOM      1  C2  UNL d   1       5.720   1.270   4.625  0.00  0.00    -0.077 A 
ATOM      2  C3  UNL d   1       5.723   2.651   4.866  0.00  0.00     0.002 A 
ATOM      3  C4  UNL d   1       5.864   3.553   3.809  0.00  0.00     0.002 A 
ATOM      4  C5  UNL d   1       5.999   3.083   2.505  0.00  0.00    -0.004 A 
ATOM      5  C6  UNL d   1       6.000   1.711   2.255  0.00  0.00     0.002 A 
ATOM      6  C7  UNL d   1       5.860   0.809   3.310  0.00  0.00     0.002 A 
ENDROOT
BRANCH   1   7
ATOM      7  C1  UNL d   1       5.519   0.298   5.758  0.00  0.00     0.055 C 
ATOM      8  C   UNL d   1       5.250  -1.108   5.240  0.00  0.00     0.019 C 
ENDBRANCH   1   7
TORSDOF 1
ENDMDL
