MODEL 1
REMARK minimizedAffinity -1.63240969
REMARK minimizedRMSD -1
REMARK  1 active torsions:
REMARK  status: ('A' for Active; 'I' for Inactive)
REMARK    1  A    between atoms: C1_2  and  C2_3 
ROOT
ATOM      1  C2  UNL d   1       5.964   2.656   3.996  0.00  0.00    -0.077 A 
ATOM      2  C3  UNL d   1       5.970   3.467   5.139  0.00  0.00     0.002 A 
ATOM      3  C4  UNL d   1       5.990   4.858   5.018  0.00  0.00     0.002 A 
ATOM      4  C5  UNL d   1       6.000   5.449   3.756  0.00  0.00    -0.004 A 
ATOM      5  C6  UNL d   1       5.996   4.650   2.613  0.00  0.00     0.002 A 
ATOM      6  C7  UNL d   1       5.978   3.260   2.733  0.00  0.00     0.002 A 
ENDROOT
BRANCH   1   7
ATOM      7  C1  UNL d   1       5.893   1.156   4.124  0.00  0.00     0.055 C 
ATOM      8  C   UNL d   1       5.072   0.743   5.338  0.00  0.00     0.019 C 
ENDBRANCH   1   7
TORSDOF 1
ENDMDL
