MODEL 1
REMARK minimizedAffinity -2.80435133
REMARK minimizedRMSD -1
REMARK  1 active torsions:
REMARK  status: ('A' for Active; 'I' for Inactive)
REMARK    1  A    between atoms: C1_2  and  C2_3 
ROOT
ATOM      1  C2  UNL d   1       5.727   2.583   4.040  0.00  0.00    -0.077 A 
ATOM      2  C3  UNL d   1       5.735   2.886   2.671  0.00  0.00     0.002 A 
ATOM      3  C4  UNL d   1       5.869   4.207   2.240  0.00  0.00     0.002 A 
ATOM      4  C5  UNL d   1       6.000   5.235   3.171  0.00  0.00    -0.004 A 
ATOM      5  C6  UNL d   1       5.991   4.945   4.535  0.00  0.00     0.002 A 
ATOM      6  C7  UNL d   1       5.855   3.625   4.967  0.00  0.00     0.002 A 
ENDROOT
BRANCH   1   7
ATOM      7  C1  UNL d   1       5.632   1.154   4.505  0.00  0.00     0.055 C 
ATOM      8  C   UNL d   1       5.948   1.032   5.989  0.00  0.00     0.019 C 
ENDBRANCH   1   7
TORSDOF 1
ENDMDL
