MODEL 1
REMARK minimizedAffinity -0.882419825
REMARK minimizedRMSD -1
REMARK  1 active torsions:
REMARK  status: ('A' for Active; 'I' for Inactive)
REMARK    1  A    between atoms: C1_2  and  C2_3 
ROOT
ATOM      1  C2  UNL d   1       5.945   3.675   3.959  0.00  0.00    -0.077 A 
ATOM      2  C3  UNL d   1       5.817   5.044   4.230  0.00  0.00     0.002 A 
ATOM      3  C4  UNL d   1       5.746   5.967   3.184  0.00  0.00     0.002 A 
ATOM      4  C5  UNL d   1       5.798   5.530   1.862  0.00  0.00    -0.004 A 
ATOM      5  C6  UNL d   1       5.927   4.170   1.583  0.00  0.00     0.002 A 
ATOM      6  C7  UNL d   1       5.999   3.246   2.627  0.00  0.00     0.002 A 
ENDROOT
BRANCH   1   7
ATOM      7  C1  UNL d   1       5.972   2.673   5.084  0.00  0.00     0.055 C 
ATOM      8  C   UNL d   1       6.000   1.247   4.556  0.00  0.00     0.019 C 
ENDBRANCH   1   7
TORSDOF 1
ENDMDL
