MODEL 1
REMARK minimizedAffinity -3.6763556
REMARK minimizedRMSD -1
REMARK  1 active torsions:
REMARK  status: ('A' for Active; 'I' for Inactive)
REMARK    1  A    between atoms: C1_2  and  C2_3 
ROOT
ATOM      1  C2  UNL d   1       5.297   2.840   4.082  0.00  0.00    -0.077 A 
ATOM      2  C3  UNL d   1       5.909   2.740   5.339  0.00  0.00     0.002 A 
ATOM      3  C4  UNL d   1       6.000   1.505   5.984  0.00  0.00     0.002 A 
ATOM      4  C5  UNL d   1       5.484   0.361   5.378  0.00  0.00    -0.004 A 
ATOM      5  C6  UNL d   1       4.872   0.450   4.129  0.00  0.00     0.002 A 
ATOM      6  C7  UNL d   1       4.779   1.684   3.483  0.00  0.00     0.002 A 
ENDROOT
BRANCH   1   7
ATOM      7  C1  UNL d   1       5.241   4.162   3.362  0.00  0.00     0.055 C 
ATOM      8  C   UNL d   1       6.000   5.239   4.124  0.00  0.00     0.019 C 
ENDBRANCH   1   7
TORSDOF 1
ENDMDL
