MODEL 1
REMARK minimizedAffinity -2.28407979
REMARK minimizedRMSD -1
REMARK  1 active torsions:
REMARK  status: ('A' for Active; 'I' for Inactive)
REMARK    1  A    between atoms: C1_2  and  C2_3 
ROOT
ATOM      1  C2  UNL d   1       5.296  -0.007   5.281  0.00  0.00    -0.077 A 
ATOM      2  C3  UNL d   1       5.254   0.053   3.881  0.00  0.00     0.002 A 
ATOM      3  C4  UNL d   1       5.581   1.236   3.215  0.00  0.00     0.002 A 
ATOM      4  C5  UNL d   1       5.955   2.365   3.939  0.00  0.00    -0.004 A 
ATOM      5  C6  UNL d   1       5.998   2.316   5.332  0.00  0.00     0.002 A 
ATOM      6  C7  UNL d   1       5.671   1.135   6.000  0.00  0.00     0.002 A 
ENDROOT
BRANCH   1   7
ATOM      7  C1  UNL d   1       4.992  -1.295   5.999  0.00  0.00     0.055 C 
ATOM      8  C   UNL d   1       5.992  -2.382   5.634  0.00  0.00     0.019 C 
ENDBRANCH   1   7
TORSDOF 1
ENDMDL
