MODEL 1
REMARK minimizedAffinity 2.65958166
REMARK minimizedRMSD -1
REMARK  1 active torsions:
REMARK  status: ('A' for Active; 'I' for Inactive)
REMARK    1  A    between atoms: C1_2  and  C2_3 
ROOT
ATOM      1  C2  UNL d   1       5.863   0.771   4.616  0.00  0.00    -0.077 A 
ATOM      2  C3  UNL d   1       5.987   1.175   3.279  0.00  0.00     0.002 A 
ATOM      3  C4  UNL d   1       5.906   2.526   2.939  0.00  0.00     0.002 A 
ATOM      4  C5  UNL d   1       5.704   3.485   3.930  0.00  0.00    -0.004 A 
ATOM      5  C6  UNL d   1       5.577   3.093   5.262  0.00  0.00     0.002 A 
ATOM      6  C7  UNL d   1       5.657   1.742   5.604  0.00  0.00     0.002 A 
ENDROOT
BRANCH   1   7
ATOM      7  C1  UNL d   1       6.000  -0.682   4.990  0.00  0.00     0.055 C 
ATOM      8  C   UNL d   1       4.843  -1.139   5.867  0.00  0.00     0.019 C 
ENDBRANCH   1   7
TORSDOF 1
ENDMDL
