MODEL 1
REMARK minimizedAffinity -1.99390757
REMARK minimizedRMSD -1
REMARK  1 active torsions:
REMARK  status: ('A' for Active; 'I' for Inactive)
REMARK    1  A    between atoms: C1_2  and  C2_3 
ROOT
ATOM      1  C2  UNL d   1       5.114   2.122   4.131  0.00  0.00    -0.077 A 
ATOM      2  C3  UNL d   1       4.901   1.373   5.297  0.00  0.00     0.002 A 
ATOM      3  C4  UNL d   1       5.233   0.018   5.336  0.00  0.00     0.002 A 
ATOM      4  C5  UNL d   1       5.784  -0.599   4.215  0.00  0.00    -0.004 A 
ATOM      5  C6  UNL d   1       5.998   0.137   3.050  0.00  0.00     0.002 A 
ATOM      6  C7  UNL d   1       5.665   1.492   3.009  0.00  0.00     0.002 A 
ENDROOT
BRANCH   1   7
ATOM      7  C1  UNL d   1       4.801   3.596   4.103  0.00  0.00     0.055 C 
ATOM      8  C   UNL d   1       5.988   4.422   4.577  0.00  0.00     0.019 C 
ENDBRANCH   1   7
TORSDOF 1
ENDMDL
