MODEL 1
REMARK minimizedAffinity -2.27989936
REMARK minimizedRMSD -1
REMARK  1 active torsions:
REMARK  status: ('A' for Active; 'I' for Inactive)
REMARK    1  A    between atoms: C1_2  and  C2_3 
ROOT
ATOM      1  C2  UNL d   1       5.835   2.215   4.836  0.00  0.00    -0.077 A 
ATOM      2  C3  UNL d   1       5.560   1.429   5.964  0.00  0.00     0.002 A 
ATOM      3  C4  UNL d   1       5.452   0.042   5.850  0.00  0.00     0.002 A 
ATOM      4  C5  UNL d   1       5.622  -0.572   4.611  0.00  0.00    -0.004 A 
ATOM      5  C6  UNL d   1       5.893   0.201   3.482  0.00  0.00     0.002 A 
ATOM      6  C7  UNL d   1       6.000   1.588   3.594  0.00  0.00     0.002 A 
ENDROOT
BRANCH   1   7
ATOM      7  C1  UNL d   1       6.000   3.706   4.966  0.00  0.00     0.055 C 
ATOM      8  C   UNL d   1       5.913   4.393   3.611  0.00  0.00     0.019 C 
ENDBRANCH   1   7
TORSDOF 1
ENDMDL
