MODEL 1
REMARK minimizedAffinity -2.82877827
REMARK minimizedRMSD -1
REMARK  1 active torsions:
REMARK  status: ('A' for Active; 'I' for Inactive)
REMARK    1  A    between atoms: C1_2  and  C2_3 
ROOT
ATOM      1  C2  UNL d   1       5.793   3.204   3.082  0.00  0.00    -0.077 A 
ATOM      2  C3  UNL d   1       5.794   3.884   1.856  0.00  0.00     0.002 A 
ATOM      3  C4  UNL d   1       5.895   5.277   1.820  0.00  0.00     0.002 A 
ATOM      4  C5  UNL d   1       5.999   6.000   3.007  0.00  0.00    -0.004 A 
ATOM      5  C6  UNL d   1       5.996   5.332   4.231  0.00  0.00     0.002 A 
ATOM      6  C7  UNL d   1       5.895   3.941   4.268  0.00  0.00     0.002 A 
ENDROOT
BRANCH   1   7
ATOM      7  C1  UNL d   1       5.734   1.700   3.120  0.00  0.00     0.055 C 
ATOM      8  C   UNL d   1       5.406   1.194   4.517  0.00  0.00     0.019 C 
ENDBRANCH   1   7
TORSDOF 1
ENDMDL
