MODEL 1
REMARK minimizedAffinity 6.51556873
REMARK minimizedRMSD -1
REMARK  0 active torsions:
REMARK  status: ('A' for Active; 'I' for Inactive)
ROOT
ATOM      1  C4' PXY d   1       3.175   0.497  -3.089  0.00  0.00     0.077 C 
ATOM      2  C1' PXY d   1      -2.419   1.847  -3.634  0.00  0.00     0.077 C 
ATOM      3  C1  PXY d   1      -0.949   1.505  -3.495  0.00  0.00    -0.082 A 
ATOM      4  C2  PXY d   1      -0.557   0.246  -3.604  0.00  0.00     0.003 A 
ATOM      5  C3  PXY d   1       0.765  -0.085  -3.449  0.00  0.00     0.003 A 
ATOM      6  C4  PXY d   1       1.702   0.889  -3.232  0.00  0.00    -0.082 A 
ATOM      7  C5  PXY d   1       1.311   2.177  -3.130  0.00  0.00     0.003 A 
ATOM      8  C6  PXY d   1      -0.040   2.488  -3.249  0.00  0.00     0.003 A 
ENDROOT
TORSDOF 0
ENDMDL
