MODEL 1
REMARK minimizedAffinity -2.2005527
REMARK minimizedRMSD -1
REMARK  0 active torsions:
REMARK  status: ('A' for Active; 'I' for Inactive)
ROOT
ATOM      1  C4' PXY d   1      -2.365   1.552  -3.102  0.00  0.00     0.077 C 
ATOM      2  C1' PXY d   1       2.817  -0.905  -3.823  0.00  0.00     0.077 C 
ATOM      3  C1  PXY d   1       1.463  -0.253  -3.625  0.00  0.00    -0.082 A 
ATOM      4  C2  PXY d   1       0.362  -0.933  -3.900  0.00  0.00     0.003 A 
ATOM      5  C3  PXY d   1      -0.869  -0.348  -3.757  0.00  0.00     0.003 A 
ATOM      6  C4  PXY d   1      -0.977   0.930  -3.278  0.00  0.00    -0.082 A 
ATOM      7  C5  PXY d   1       0.141   1.628  -2.985  0.00  0.00     0.003 A 
ATOM      8  C6  PXY d   1       1.383   1.029  -3.176  0.00  0.00     0.003 A 
ENDROOT
TORSDOF 0
ENDMDL
