MODEL 1
REMARK minimizedAffinity 10.7208157
REMARK minimizedRMSD -1
REMARK  0 active torsions:
REMARK  status: ('A' for Active; 'I' for Inactive)
ROOT
ATOM      1  C4' PXY d   1      -5.962  -0.260   4.988  0.00  0.00     0.077 C 
ATOM      2  C1' PXY d   1      -3.764   5.084   5.144  0.00  0.00     0.077 C 
ATOM      3  C1  PXY d   1      -4.338   3.682   5.090  0.00  0.00    -0.082 A 
ATOM      4  C2  PXY d   1      -5.220   3.301   6.000  0.00  0.00     0.003 A 
ATOM      5  C3  PXY d   1      -5.725   2.026   5.985  0.00  0.00     0.003 A 
ATOM      6  C4  PXY d   1      -5.363   1.149   4.998  0.00  0.00    -0.082 A 
ATOM      7  C5  PXY d   1      -4.472   1.534   4.060  0.00  0.00     0.003 A 
ATOM      8  C6  PXY d   1      -3.940   2.819   4.116  0.00  0.00     0.003 A 
ENDROOT
TORSDOF 0
ENDMDL
