MODEL 1
REMARK minimizedAffinity 12.8394079
REMARK minimizedRMSD -1
REMARK  0 active torsions:
REMARK  status: ('A' for Active; 'I' for Inactive)
ROOT
ATOM      1  C4' PXY d   1      -1.419  -5.899   1.506  0.00  0.00     0.077 C 
ATOM      2  C1' PXY d   1       4.047  -4.020   1.557  0.00  0.00     0.077 C 
ATOM      3  C1  PXY d   1       2.612  -4.507   1.555  0.00  0.00    -0.082 A 
ATOM      4  C2  PXY d   1       2.281  -5.565   0.833  0.00  0.00     0.003 A 
ATOM      5  C3  PXY d   1       0.981  -6.000   0.794  0.00  0.00     0.003 A 
ATOM      6  C4  PXY d   1       0.020  -5.378   1.546  0.00  0.00    -0.082 A 
ATOM      7  C5  PXY d   1       0.352  -4.304   2.294  0.00  0.00     0.003 A 
ATOM      8  C6  PXY d   1       1.669  -3.854   2.287  0.00  0.00     0.003 A 
ENDROOT
TORSDOF 0
ENDMDL
