MODEL 1
REMARK minimizedAffinity 6.64678526
REMARK minimizedRMSD -1
REMARK  0 active torsions:
REMARK  status: ('A' for Active; 'I' for Inactive)
ROOT
ATOM      1  C4' PXY d   1      -2.929  -5.206   0.621  0.00  0.00     0.077 C 
ATOM      2  C1' PXY d   1       2.278  -5.246   3.129  0.00  0.00     0.077 C 
ATOM      3  C1  PXY d   1       0.918  -5.239   2.460  0.00  0.00    -0.082 A 
ATOM      4  C2  PXY d   1      -0.059  -4.508   2.971  0.00  0.00     0.003 A 
ATOM      5  C3  PXY d   1      -1.304  -4.515   2.397  0.00  0.00     0.003 A 
ATOM      6  C4  PXY d   1      -1.537  -5.236   1.257  0.00  0.00    -0.082 A 
ATOM      7  C5  PXY d   1      -0.543  -5.977   0.724  0.00  0.00     0.003 A 
ATOM      8  C6  PXY d   1       0.702  -5.989   1.345  0.00  0.00     0.003 A 
ENDROOT
TORSDOF 0
ENDMDL
