MODEL 1
REMARK minimizedAffinity 8.09803772
REMARK minimizedRMSD -1
REMARK  0 active torsions:
REMARK  status: ('A' for Active; 'I' for Inactive)
ROOT
ATOM      1  C4' PXY d   1      -2.228  -5.545   0.365  0.00  0.00     0.077 C 
ATOM      2  C1' PXY d   1       2.775  -5.999   3.224  0.00  0.00     0.077 C 
ATOM      3  C1  PXY d   1       1.469  -5.873   2.465  0.00  0.00    -0.082 A 
ATOM      4  C2  PXY d   1       0.322  -5.991   3.114  0.00  0.00     0.003 A 
ATOM      5  C3  PXY d   1      -0.869  -5.912   2.437  0.00  0.00     0.003 A 
ATOM      6  C4  PXY d   1      -0.885  -5.656   1.092  0.00  0.00    -0.082 A 
ATOM      7  C5  PXY d   1       0.281  -5.524   0.426  0.00  0.00     0.003 A 
ATOM      8  C6  PXY d   1       1.479  -5.649   1.123  0.00  0.00     0.003 A 
ENDROOT
TORSDOF 0
ENDMDL
