MODEL 1
REMARK minimizedAffinity 10.0755138
REMARK minimizedRMSD -1
REMARK  0 active torsions:
REMARK  status: ('A' for Active; 'I' for Inactive)
ROOT
ATOM      1  C4' PXY d   1       1.947   2.645   1.126  0.00  0.00     0.077 C 
ATOM      2  C1' PXY d   1       2.600  -1.096  -3.232  0.00  0.00     0.077 C 
ATOM      3  C1  PXY d   1       2.436  -0.123  -2.081  0.00  0.00    -0.082 A 
ATOM      4  C2  PXY d   1       1.406   0.707  -2.068  0.00  0.00     0.003 A 
ATOM      5  C3  PXY d   1       1.259   1.616  -1.052  0.00  0.00     0.003 A 
ATOM      6  C4  PXY d   1       2.148   1.639  -0.010  0.00  0.00    -0.082 A 
ATOM      7  C5  PXY d   1       3.196   0.788  -0.011  0.00  0.00     0.003 A 
ATOM      8  C6  PXY d   1       3.349  -0.098  -1.073  0.00  0.00     0.003 A 
ENDROOT
TORSDOF 0
ENDMDL
