MODEL 1
REMARK minimizedAffinity 4.62926245
REMARK minimizedRMSD -1
REMARK  0 active torsions:
REMARK  status: ('A' for Active; 'I' for Inactive)
ROOT
ATOM      1  C4' PXY d   1       2.476  -5.993   2.557  0.00  0.00     0.077 C 
ATOM      2  C1' PXY d   1      -3.018  -5.986   0.759  0.00  0.00     0.077 C 
ATOM      3  C1  PXY d   1      -1.573  -5.993   1.219  0.00  0.00    -0.082 A 
ATOM      4  C2  PXY d   1      -1.299  -6.000   2.514  0.00  0.00     0.003 A 
ATOM      5  C3  PXY d   1       0.001  -5.974   2.947  0.00  0.00     0.003 A 
ATOM      6  C4  PXY d   1       1.033  -5.995   2.047  0.00  0.00    -0.082 A 
ATOM      7  C5  PXY d   1       0.761  -5.999   0.724  0.00  0.00     0.003 A 
ATOM      8  C6  PXY d   1      -0.566  -5.984   0.305  0.00  0.00     0.003 A 
ENDROOT
TORSDOF 0
ENDMDL
