MODEL 1
REMARK minimizedAffinity 2.21743107
REMARK minimizedRMSD -1
REMARK  0 active torsions:
REMARK  status: ('A' for Active; 'I' for Inactive)
ROOT
ATOM      1  C4' PXY d   1      -4.004   0.387  -4.838  0.00  0.00     0.077 C 
ATOM      2  C1' PXY d   1       1.105   1.850  -2.563  0.00  0.00     0.077 C 
ATOM      3  C1  PXY d   1      -0.236   1.456  -3.151  0.00  0.00    -0.082 A 
ATOM      4  C2  PXY d   1      -0.540   1.819  -4.386  0.00  0.00     0.003 A 
ATOM      5  C3  PXY d   1      -1.761   1.499  -4.923  0.00  0.00     0.003 A 
ATOM      6  C4  PXY d   1      -2.658   0.754  -4.206  0.00  0.00    -0.082 A 
ATOM      7  C5  PXY d   1      -2.351   0.371  -2.949  0.00  0.00     0.003 A 
ATOM      8  C6  PXY d   1      -1.123   0.741  -2.408  0.00  0.00     0.003 A 
ENDROOT
TORSDOF 0
ENDMDL
