MODEL 1
REMARK minimizedAffinity 2.59283638
REMARK minimizedRMSD -1
REMARK  0 active torsions:
REMARK  status: ('A' for Active; 'I' for Inactive)
ROOT
ATOM      1  C4' PXY d   1       0.465   1.844   1.150  0.00  0.00     0.077 C 
ATOM      2  C1' PXY d   1       5.976   0.100   1.208  0.00  0.00     0.077 C 
ATOM      3  C1  PXY d   1       4.528   0.549   1.203  0.00  0.00    -0.082 A 
ATOM      4  C2  PXY d   1       4.007   1.062   0.100  0.00  0.00     0.003 A 
ATOM      5  C3  PXY d   1       2.708   1.503   0.087  0.00  0.00     0.003 A 
ATOM      6  C4  PXY d   1       1.920   1.369   1.198  0.00  0.00    -0.082 A 
ATOM      7  C5  PXY d   1       2.442   0.837   2.324  0.00  0.00     0.003 A 
ATOM      8  C6  PXY d   1       3.774   0.433   2.329  0.00  0.00     0.003 A 
ENDROOT
TORSDOF 0
ENDMDL
