MODEL 1
REMARK minimizedAffinity 5.48086882
REMARK minimizedRMSD -1
REMARK  0 active torsions:
REMARK  status: ('A' for Active; 'I' for Inactive)
ROOT
ATOM      1  C4' PXY d   1       3.714   0.959  -4.040  0.00  0.00     0.077 C 
ATOM      2  C1' PXY d   1       0.063   5.420  -4.461  0.00  0.00     0.077 C 
ATOM      3  C1  PXY d   1       1.022   4.250  -4.363  0.00  0.00    -0.082 A 
ATOM      4  C2  PXY d   1       0.976   3.454  -3.308  0.00  0.00     0.003 A 
ATOM      5  C3  PXY d   1       1.857   2.410  -3.188  0.00  0.00     0.003 A 
ATOM      6  C4  PXY d   1       2.759   2.147  -4.185  0.00  0.00    -0.082 A 
ATOM      7  C5  PXY d   1       2.804   2.948  -5.270  0.00  0.00     0.003 A 
ATOM      8  C6  PXY d   1       1.929   4.027  -5.353  0.00  0.00     0.003 A 
ENDROOT
TORSDOF 0
ENDMDL
