MODEL 1
REMARK minimizedAffinity 10.9692307
REMARK minimizedRMSD -1
REMARK  0 active torsions:
REMARK  status: ('A' for Active; 'I' for Inactive)
ROOT
ATOM      1  C4' PXY d   1       6.000  -0.312   2.664  0.00  0.00     0.077 C 
ATOM      2  C1' PXY d   1       2.184   2.915  -0.241  0.00  0.00     0.077 C 
ATOM      3  C1  PXY d   1       3.178   2.071   0.532  0.00  0.00    -0.082 A 
ATOM      4  C2  PXY d   1       4.409   1.921   0.069  0.00  0.00     0.003 A 
ATOM      5  C3  PXY d   1       5.311   1.135   0.738  0.00  0.00     0.003 A 
ATOM      6  C4  PXY d   1       4.966   0.539   1.922  0.00  0.00    -0.082 A 
ATOM      7  C5  PXY d   1       3.716   0.695   2.406  0.00  0.00     0.003 A 
ATOM      8  C6  PXY d   1       2.802   1.464   1.690  0.00  0.00     0.003 A 
ENDROOT
TORSDOF 0
ENDMDL
