MODEL 1
REMARK minimizedAffinity 6.09973335
REMARK minimizedRMSD -1
REMARK  0 active torsions:
REMARK  status: ('A' for Active; 'I' for Inactive)
ROOT
ATOM      1  C4' PXY d   1       3.296  -5.999   2.228  0.00  0.00     0.077 C 
ATOM      2  C1' PXY d   1      -2.305  -5.912   0.800  0.00  0.00     0.077 C 
ATOM      3  C1  PXY d   1      -0.833  -5.939   1.163  0.00  0.00    -0.082 A 
ATOM      4  C2  PXY d   1      -0.474  -5.985   2.436  0.00  0.00     0.003 A 
ATOM      5  C3  PXY d   1       0.853  -5.978   2.783  0.00  0.00     0.003 A 
ATOM      6  C4  PXY d   1       1.822  -5.979   1.815  0.00  0.00    -0.082 A 
ATOM      7  C5  PXY d   1       1.463  -5.944   0.514  0.00  0.00     0.003 A 
ATOM      8  C6  PXY d   1       0.111  -5.909   0.184  0.00  0.00     0.003 A 
ENDROOT
TORSDOF 0
ENDMDL
