MODEL 1
REMARK minimizedAffinity -1.51484239
REMARK minimizedRMSD -1
REMARK  0 active torsions:
REMARK  status: ('A' for Active; 'I' for Inactive)
ROOT
ATOM      1  C4' PXY d   1       4.474   2.391   0.746  0.00  0.00     0.077 C 
ATOM      2  C1' PXY d   1       1.061  -2.058   2.151  0.00  0.00     0.077 C 
ATOM      3  C1  PXY d   1       1.964  -0.894   1.792  0.00  0.00    -0.082 A 
ATOM      4  C2  PXY d   1       1.480   0.115   1.087  0.00  0.00     0.003 A 
ATOM      5  C3  PXY d   1       2.291   1.161   0.727  0.00  0.00     0.003 A 
ATOM      6  C4  PXY d   1       3.596   1.199   1.139  0.00  0.00    -0.082 A 
ATOM      7  C5  PXY d   1       4.094   0.178   1.868  0.00  0.00     0.003 A 
ATOM      8  C6  PXY d   1       3.266  -0.894   2.188  0.00  0.00     0.003 A 
ENDROOT
TORSDOF 0
ENDMDL
