MODEL 1
REMARK minimizedAffinity 3.20406318
REMARK minimizedRMSD -1
REMARK  0 active torsions:
REMARK  status: ('A' for Active; 'I' for Inactive)
ROOT
ATOM      1  C4' PXY d   1      -1.182   0.353  -2.432  0.00  0.00     0.077 C 
ATOM      2  C1' PXY d   1      -4.555   0.642   2.254  0.00  0.00     0.077 C 
ATOM      3  C1  PXY d   1      -3.672   0.553   1.025  0.00  0.00    -0.082 A 
ATOM      4  C2  PXY d   1      -2.738   1.468   0.823  0.00  0.00     0.003 A 
ATOM      5  C3  PXY d   1      -1.953   1.421  -0.300  0.00  0.00     0.003 A 
ATOM      6  C4  PXY d   1      -2.090   0.397  -1.199  0.00  0.00    -0.082 A 
ATOM      7  C5  PXY d   1      -3.033  -0.546  -0.995  0.00  0.00     0.003 A 
ATOM      8  C6  PXY d   1      -3.848  -0.457   0.131  0.00  0.00     0.003 A 
ENDROOT
TORSDOF 0
ENDMDL
