MODEL 1
REMARK minimizedAffinity 8.50843334
REMARK minimizedRMSD -1
REMARK  0 active torsions:
REMARK  status: ('A' for Active; 'I' for Inactive)
ROOT
ATOM      1  C4' PXY d   1       2.211   3.370  -5.020  0.00  0.00     0.077 C 
ATOM      2  C1' PXY d   1       3.229  -1.721  -2.478  0.00  0.00     0.077 C 
ATOM      3  C1  PXY d   1       2.951  -0.385  -3.139  0.00  0.00    -0.082 A 
ATOM      4  C2  PXY d   1       3.560  -0.076  -4.272  0.00  0.00     0.003 A 
ATOM      5  C3  PXY d   1       3.344   1.140  -4.866  0.00  0.00     0.003 A 
ATOM      6  C4  PXY d   1       2.455   2.029  -4.323  0.00  0.00    -0.082 A 
ATOM      7  C5  PXY d   1       1.821   1.716  -3.172  0.00  0.00     0.003 A 
ATOM      8  C6  PXY d   1       2.086   0.493  -2.563  0.00  0.00     0.003 A 
ENDROOT
TORSDOF 0
ENDMDL
