MODEL 1
REMARK minimizedAffinity 12.7507477
REMARK minimizedRMSD -1
REMARK  0 active torsions:
REMARK  status: ('A' for Active; 'I' for Inactive)
ROOT
ATOM      1  C4' PXY d   1       1.036   1.864  -0.663  0.00  0.00     0.077 C 
ATOM      2  C1' PXY d   1      -3.361   1.672  -4.410  0.00  0.00     0.077 C 
ATOM      3  C1  PXY d   1      -2.215   1.717  -3.418  0.00  0.00    -0.082 A 
ATOM      4  C2  PXY d   1      -1.278   2.642  -3.542  0.00  0.00     0.003 A 
ATOM      5  C3  PXY d   1      -0.218   2.677  -2.673  0.00  0.00     0.003 A 
ATOM      6  C4  PXY d   1      -0.144   1.788  -1.635  0.00  0.00    -0.082 A 
ATOM      7  C5  PXY d   1      -1.102   0.847  -1.496  0.00  0.00     0.003 A 
ATOM      8  C6  PXY d   1      -2.148   0.803  -2.413  0.00  0.00     0.003 A 
ENDROOT
TORSDOF 0
ENDMDL
