MODEL 1
REMARK minimizedAffinity 6.73916149
REMARK minimizedRMSD -1
REMARK  0 active torsions:
REMARK  status: ('A' for Active; 'I' for Inactive)
ROOT
ATOM      1  C4' PXY d   1       2.333   4.154  -5.988  0.00  0.00     0.077 C 
ATOM      2  C1' PXY d   1       2.812   0.963  -1.193  0.00  0.00     0.077 C 
ATOM      3  C1  PXY d   1       2.699   1.797  -2.453  0.00  0.00    -0.082 A 
ATOM      4  C2  PXY d   1       1.753   2.718  -2.545  0.00  0.00     0.003 A 
ATOM      5  C3  PXY d   1       1.617   3.460  -3.690  0.00  0.00     0.003 A 
ATOM      6  C4  PXY d   1       2.491   3.295  -4.731  0.00  0.00    -0.082 A 
ATOM      7  C5  PXY d   1       3.465   2.365  -4.640  0.00  0.00     0.003 A 
ATOM      8  C6  PXY d   1       3.561   1.594  -3.486  0.00  0.00     0.003 A 
ENDROOT
TORSDOF 0
ENDMDL
