MODEL 1
REMARK minimizedAffinity 6.71317816
REMARK minimizedRMSD -1
REMARK  0 active torsions:
REMARK  status: ('A' for Active; 'I' for Inactive)
ROOT
ATOM      1  C4' PXY d   1       2.611  -5.971   2.598  0.00  0.00     0.077 C 
ATOM      2  C1' PXY d   1      -2.971  -5.999   1.096  0.00  0.00     0.077 C 
ATOM      3  C1  PXY d   1      -1.511  -5.986   1.501  0.00  0.00    -0.082 A 
ATOM      4  C2  PXY d   1      -0.573  -5.975   0.568  0.00  0.00     0.003 A 
ATOM      5  C3  PXY d   1       0.753  -5.996   0.917  0.00  0.00     0.003 A 
ATOM      6  C4  PXY d   1       1.123  -5.975   2.235  0.00  0.00    -0.082 A 
ATOM      7  C5  PXY d   1       0.172  -5.975   3.193  0.00  0.00     0.003 A 
ATOM      8  C6  PXY d   1      -1.168  -5.996   2.818  0.00  0.00     0.003 A 
ENDROOT
TORSDOF 0
ENDMDL
