MODEL 1
REMARK minimizedAffinity 3.2679863
REMARK minimizedRMSD -1
REMARK  0 active torsions:
REMARK  status: ('A' for Active; 'I' for Inactive)
ROOT
ATOM      1  C4' PXY d   1      -0.750   0.734   0.780  0.00  0.00     0.077 C 
ATOM      2  C1' PXY d   1      -2.988   1.168  -4.532  0.00  0.00     0.077 C 
ATOM      3  C1  PXY d   1      -2.413   1.049  -3.135  0.00  0.00    -0.082 A 
ATOM      4  C2  PXY d   1      -1.427   1.850  -2.763  0.00  0.00     0.003 A 
ATOM      5  C3  PXY d   1      -0.874   1.734  -1.514  0.00  0.00     0.003 A 
ATOM      6  C4  PXY d   1      -1.369   0.825  -0.618  0.00  0.00    -0.082 A 
ATOM      7  C5  PXY d   1      -2.381   0.011  -0.986  0.00  0.00     0.003 A 
ATOM      8  C6  PXY d   1      -2.902   0.116  -2.273  0.00  0.00     0.003 A 
ENDROOT
TORSDOF 0
ENDMDL
