MODEL 1
REMARK minimizedAffinity -5.66505814
REMARK minimizedRMSD -1
REMARK  2 active torsions:
REMARK  status: ('A' for Active; 'I' for Inactive)
REMARK    1  A    between atoms: C1_2  and  C2_3 
REMARK    2  A    between atoms: C2_3  and  C3_4 
ROOT
ATOM      1  C3  UNL d   1      -0.232  -0.433   0.376  0.00  0.00    -0.075 A 
ATOM      2  C4  UNL d   1       0.790  -0.991  -0.405  0.00  0.00     0.002 A 
ATOM      3  C5  UNL d   1       0.823  -2.363  -0.654  0.00  0.00     0.002 A 
ATOM      4  C6  UNL d   1      -0.157  -3.195  -0.117  0.00  0.00    -0.004 A 
ATOM      5  C7  UNL d   1      -1.168  -2.654   0.675  0.00  0.00     0.002 A 
ATOM      6  C8  UNL d   1      -1.206  -1.281   0.922  0.00  0.00     0.002 A 
ENDROOT
BRANCH   1   7
ATOM      7  C2  UNL d   1      -0.291   1.055   0.625  0.00  0.00     0.056 C 
BRANCH   7   8
ATOM      8  C1  UNL d   1       0.366   1.897  -0.475  0.00  0.00     0.007 C 
ATOM      9  C   UNL d   1       1.035   3.158   0.054  0.00  0.00     0.009 C 
ENDBRANCH   7   8
ENDBRANCH   1   7
TORSDOF 2
ENDMDL
