MODEL 1
REMARK minimizedAffinity -3.85877681
REMARK minimizedRMSD -1
REMARK  2 active torsions:
REMARK  status: ('A' for Active; 'I' for Inactive)
REMARK    1  A    between atoms: C1_2  and  C2_3 
REMARK    2  A    between atoms: C2_3  and  C3_4 
ROOT
ATOM      1  C3  UNL d   1       0.130  -0.065   0.199  0.00  0.00    -0.075 A 
ATOM      2  C4  UNL d   1       1.129  -0.983  -0.152  0.00  0.00     0.002 A 
ATOM      3  C5  UNL d   1       0.920  -2.354   0.007  0.00  0.00     0.002 A 
ATOM      4  C6  UNL d   1      -0.285  -2.821   0.529  0.00  0.00    -0.004 A 
ATOM      5  C7  UNL d   1      -1.278  -1.916   0.897  0.00  0.00     0.002 A 
ATOM      6  C8  UNL d   1      -1.073  -0.545   0.734  0.00  0.00     0.002 A 
ENDROOT
BRANCH   1   7
ATOM      7  C2  UNL d   1       0.339   1.418   0.001  0.00  0.00     0.056 C 
BRANCH   7   8
ATOM      8  C1  UNL d   1       1.737   1.908   0.393  0.00  0.00     0.007 C 
ATOM      9  C   UNL d   1       1.742   3.325   0.950  0.00  0.00     0.009 C 
ENDBRANCH   7   8
ENDBRANCH   1   7
TORSDOF 2
ENDMDL
