MODEL 1
REMARK minimizedAffinity -3.52334619
REMARK minimizedRMSD -1
REMARK  2 active torsions:
REMARK  status: ('A' for Active; 'I' for Inactive)
REMARK    1  A    between atoms: C1_2  and  C2_3 
REMARK    2  A    between atoms: C2_3  and  C3_4 
ROOT
ATOM      1  C3  UNL d   1       0.659  -0.792  -0.130  0.00  0.00    -0.075 A 
ATOM      2  C4  UNL d   1       0.639  -0.508  -1.504  0.00  0.00     0.002 A 
ATOM      3  C5  UNL d   1       0.338   0.776  -1.957  0.00  0.00     0.002 A 
ATOM      4  C6  UNL d   1       0.045   1.789  -1.046  0.00  0.00    -0.004 A 
ATOM      5  C7  UNL d   1       0.046   1.514   0.320  0.00  0.00     0.002 A 
ATOM      6  C8  UNL d   1       0.350   0.230   0.776  0.00  0.00     0.002 A 
ENDROOT
BRANCH   1   7
ATOM      7  C2  UNL d   1       1.013  -2.173   0.368  0.00  0.00     0.056 C 
BRANCH   7   8
ATOM      8  C1  UNL d   1      -0.160  -3.159   0.358  0.00  0.00     0.007 C 
ATOM      9  C   UNL d   1      -1.497  -2.504   0.679  0.00  0.00     0.009 C 
ENDBRANCH   7   8
ENDBRANCH   1   7
TORSDOF 2
ENDMDL
