MODEL 1
REMARK minimizedAffinity -4.58154392
REMARK minimizedRMSD -1
REMARK  2 active torsions:
REMARK  status: ('A' for Active; 'I' for Inactive)
REMARK    1  A    between atoms: C1_2  and  C2_3 
REMARK    2  A    between atoms: C2_3  and  C3_4 
ROOT
ATOM      1  C3  UNL d   1      -0.365   0.022   0.037  0.00  0.00    -0.075 A 
ATOM      2  C4  UNL d   1      -1.128  -0.627   1.019  0.00  0.00     0.002 A 
ATOM      3  C5  UNL d   1      -1.091  -2.016   1.141  0.00  0.00     0.002 A 
ATOM      4  C6  UNL d   1      -0.301  -2.774   0.280  0.00  0.00    -0.004 A 
ATOM      5  C7  UNL d   1       0.448  -2.141  -0.710  0.00  0.00     0.002 A 
ATOM      6  C8  UNL d   1       0.417  -0.751  -0.832  0.00  0.00     0.002 A 
ENDROOT
BRANCH   1   7
ATOM      7  C2  UNL d   1      -0.378   1.527  -0.081  0.00  0.00     0.056 C 
BRANCH   7   8
ATOM      8  C1  UNL d   1       0.985   2.184   0.163  0.00  0.00     0.007 C 
ATOM      9  C   UNL d   1       0.900   3.448   1.007  0.00  0.00     0.009 C 
ENDBRANCH   7   8
ENDBRANCH   1   7
TORSDOF 2
ENDMDL
