MODEL 1
REMARK minimizedAffinity -3.58744574
REMARK minimizedRMSD -1
REMARK  2 active torsions:
REMARK  status: ('A' for Active; 'I' for Inactive)
REMARK    1  A    between atoms: C1_2  and  C2_3 
REMARK    2  A    between atoms: C2_3  and  C3_4 
ROOT
ATOM      1  C3  UNL d   1      -0.083   0.011  -0.261  0.00  0.00    -0.075 A 
ATOM      2  C4  UNL d   1       0.730  -0.923  -0.918  0.00  0.00     0.002 A 
ATOM      3  C5  UNL d   1       0.689  -2.272  -0.565  0.00  0.00     0.002 A 
ATOM      4  C6  UNL d   1      -0.156  -2.702   0.455  0.00  0.00    -0.004 A 
ATOM      5  C7  UNL d   1      -0.957  -1.781   1.127  0.00  0.00     0.002 A 
ATOM      6  C8  UNL d   1      -0.921  -0.431   0.772  0.00  0.00     0.002 A 
ENDROOT
BRANCH   1   7
ATOM      7  C2  UNL d   1      -0.065   1.468  -0.658  0.00  0.00     0.056 C 
BRANCH   7   8
ATOM      8  C1  UNL d   1      -0.210   2.437   0.519  0.00  0.00     0.007 C 
ATOM      9  C   UNL d   1       0.994   3.354   0.693  0.00  0.00     0.009 C 
ENDBRANCH   7   8
ENDBRANCH   1   7
TORSDOF 2
ENDMDL
