MODEL 1
REMARK minimizedAffinity -4.12644625
REMARK minimizedRMSD -1
REMARK  2 active torsions:
REMARK  status: ('A' for Active; 'I' for Inactive)
REMARK    1  A    between atoms: C1_2  and  C2_3 
REMARK    2  A    between atoms: C2_3  and  C3_4 
ROOT
ATOM      1  C3  UNL d   1      -0.131  -0.691  -0.536  0.00  0.00    -0.075 A 
ATOM      2  C4  UNL d   1       0.367  -0.833  -1.839  0.00  0.00     0.002 A 
ATOM      3  C5  UNL d   1       0.785  -2.080  -2.305  0.00  0.00     0.002 A 
ATOM      4  C6  UNL d   1       0.720  -3.196  -1.473  0.00  0.00    -0.004 A 
ATOM      5  C7  UNL d   1       0.242  -3.063  -0.171  0.00  0.00     0.002 A 
ATOM      6  C8  UNL d   1      -0.181  -1.817   0.296  0.00  0.00     0.002 A 
ENDROOT
BRANCH   1   7
ATOM      7  C2  UNL d   1      -0.612   0.650  -0.035  0.00  0.00     0.056 C 
BRANCH   7   8
ATOM      8  C1  UNL d   1       0.456   1.748  -0.067  0.00  0.00     0.007 C 
ATOM      9  C   UNL d   1       0.043   3.010   0.679  0.00  0.00     0.009 C 
ENDBRANCH   7   8
ENDBRANCH   1   7
TORSDOF 2
ENDMDL
