MODEL 1
REMARK minimizedAffinity -5.22646236
REMARK minimizedRMSD -1
REMARK  2 active torsions:
REMARK  status: ('A' for Active; 'I' for Inactive)
REMARK    1  A    between atoms: C1_2  and  C2_3 
REMARK    2  A    between atoms: C2_3  and  C3_4 
ROOT
ATOM      1  C3  UNL d   1      -0.337   0.190  -0.497  0.00  0.00    -0.075 A 
ATOM      2  C4  UNL d   1      -0.091  -0.917  -1.322  0.00  0.00     0.002 A 
ATOM      3  C5  UNL d   1      -0.415  -2.205  -0.895  0.00  0.00     0.002 A 
ATOM      4  C6  UNL d   1      -0.978  -2.403   0.364  0.00  0.00    -0.004 A 
ATOM      5  C7  UNL d   1      -1.211  -1.312   1.199  0.00  0.00     0.002 A 
ATOM      6  C8  UNL d   1      -0.892  -0.022   0.772  0.00  0.00     0.002 A 
ENDROOT
BRANCH   1   7
ATOM      7  C2  UNL d   1      -0.016   1.589  -0.966  0.00  0.00     0.056 C 
BRANCH   7   8
ATOM      8  C1  UNL d   1       0.331   2.562   0.166  0.00  0.00     0.007 C 
ATOM      9  C   UNL d   1       1.787   3.010   0.147  0.00  0.00     0.009 C 
ENDBRANCH   7   8
ENDBRANCH   1   7
TORSDOF 2
ENDMDL
