MODEL 1
REMARK minimizedAffinity -2.2641809
REMARK minimizedRMSD -1
REMARK  2 active torsions:
REMARK  status: ('A' for Active; 'I' for Inactive)
REMARK    1  A    between atoms: C1_2  and  C2_3 
REMARK    2  A    between atoms: C2_3  and  C3_4 
ROOT
ATOM      1  C3  UNL d   1       0.321  -0.452   0.339  0.00  0.00    -0.075 A 
ATOM      2  C4  UNL d   1      -0.593  -0.620   1.389  0.00  0.00     0.002 A 
ATOM      3  C5  UNL d   1      -1.002  -1.897   1.774  0.00  0.00     0.002 A 
ATOM      4  C6  UNL d   1      -0.512  -3.019   1.109  0.00  0.00    -0.004 A 
ATOM      5  C7  UNL d   1       0.384  -2.863   0.053  0.00  0.00     0.002 A 
ATOM      6  C8  UNL d   1       0.798  -1.586  -0.331  0.00  0.00     0.002 A 
ENDROOT
BRANCH   1   7
ATOM      7  C2  UNL d   1       0.790   0.926  -0.064  0.00  0.00     0.056 C 
BRANCH   7   8
ATOM      8  C1  UNL d   1       1.169   1.826   1.117  0.00  0.00     0.007 C 
ATOM      9  C   UNL d   1       1.672   3.198   0.690  0.00  0.00     0.009 C 
ENDBRANCH   7   8
ENDBRANCH   1   7
TORSDOF 2
ENDMDL
