MODEL 1
REMARK minimizedAffinity -5.15875673
REMARK minimizedRMSD -1
REMARK  2 active torsions:
REMARK  status: ('A' for Active; 'I' for Inactive)
REMARK    1  A    between atoms: C1_2  and  C2_3 
REMARK    2  A    between atoms: C2_3  and  C3_4 
ROOT
ATOM      1  C3  UNL d   1      -0.223  -0.227   0.049  0.00  0.00    -0.075 A 
ATOM      2  C4  UNL d   1       0.308  -0.933  -1.040  0.00  0.00     0.002 A 
ATOM      3  C5  UNL d   1       0.301  -2.328  -1.052  0.00  0.00     0.002 A 
ATOM      4  C6  UNL d   1      -0.226  -3.034   0.027  0.00  0.00    -0.004 A 
ATOM      5  C7  UNL d   1      -0.742  -2.343   1.122  0.00  0.00     0.002 A 
ATOM      6  C8  UNL d   1      -0.740  -0.947   1.134  0.00  0.00     0.002 A 
ENDROOT
BRANCH   1   7
ATOM      7  C2  UNL d   1      -0.246   1.283   0.054  0.00  0.00     0.056 C 
BRANCH   7   8
ATOM      8  C1  UNL d   1       0.973   1.922   0.728  0.00  0.00     0.007 C 
ATOM      9  C   UNL d   1       0.636   3.191   1.499  0.00  0.00     0.009 C 
ENDBRANCH   7   8
ENDBRANCH   1   7
TORSDOF 2
ENDMDL
