MODEL 1
REMARK minimizedAffinity -6.07576084
REMARK minimizedRMSD -1
REMARK  2 active torsions:
REMARK  status: ('A' for Active; 'I' for Inactive)
REMARK    1  A    between atoms: C1_2  and  C2_3 
REMARK    2  A    between atoms: C2_3  and  C3_4 
ROOT
ATOM      1  C3  UNL d   1       0.220  -0.941  -0.095  0.00  0.00    -0.075 A 
ATOM      2  C4  UNL d   1       0.412  -0.938  -1.484  0.00  0.00     0.002 A 
ATOM      3  C5  UNL d   1       0.487  -2.138  -2.192  0.00  0.00     0.002 A 
ATOM      4  C6  UNL d   1       0.382  -3.354  -1.520  0.00  0.00    -0.004 A 
ATOM      5  C7  UNL d   1       0.207  -3.370  -0.138  0.00  0.00     0.002 A 
ATOM      6  C8  UNL d   1       0.127  -2.170   0.572  0.00  0.00     0.002 A 
ENDROOT
BRANCH   1   7
ATOM      7  C2  UNL d   1       0.108   0.354   0.673  0.00  0.00     0.056 C 
BRANCH   7   8
ATOM      8  C1  UNL d   1       0.415   1.602  -0.162  0.00  0.00     0.007 C 
ATOM      9  C   UNL d   1       1.209   2.654   0.601  0.00  0.00     0.009 C 
ENDBRANCH   7   8
ENDBRANCH   1   7
TORSDOF 2
ENDMDL
