MODEL 1
REMARK minimizedAffinity -4.15093088
REMARK minimizedRMSD -1
REMARK  2 active torsions:
REMARK  status: ('A' for Active; 'I' for Inactive)
REMARK    1  A    between atoms: C1_2  and  C2_3 
REMARK    2  A    between atoms: C2_3  and  C3_4 
ROOT
ATOM      1  C3  UNL d   1       0.057  -0.625   0.420  0.00  0.00    -0.075 A 
ATOM      2  C4  UNL d   1       1.330  -1.211   0.380  0.00  0.00     0.002 A 
ATOM      3  C5  UNL d   1       1.469  -2.596   0.283  0.00  0.00     0.002 A 
ATOM      4  C6  UNL d   1       0.341  -3.411   0.233  0.00  0.00    -0.004 A 
ATOM      5  C7  UNL d   1      -0.929  -2.840   0.288  0.00  0.00     0.002 A 
ATOM      6  C8  UNL d   1      -1.072  -1.455   0.381  0.00  0.00     0.002 A 
ENDROOT
BRANCH   1   7
ATOM      7  C2  UNL d   1      -0.101   0.875   0.496  0.00  0.00     0.056 C 
BRANCH   7   8
ATOM      8  C1  UNL d   1       1.157   1.656   0.102  0.00  0.00     0.007 C 
ATOM      9  C   UNL d   1       1.347   2.934   0.908  0.00  0.00     0.009 C 
ENDBRANCH   7   8
ENDBRANCH   1   7
TORSDOF 2
ENDMDL
