MODEL 1
REMARK minimizedAffinity -3.96622634
REMARK minimizedRMSD -1
REMARK  2 active torsions:
REMARK  status: ('A' for Active; 'I' for Inactive)
REMARK    1  A    between atoms: C1_2  and  C2_3 
REMARK    2  A    between atoms: C2_3  and  C3_4 
ROOT
ATOM      1  C3  UNL d   1      -0.372   0.143   0.141  0.00  0.00    -0.075 A 
ATOM      2  C4  UNL d   1      -1.194  -0.430   1.122  0.00  0.00     0.002 A 
ATOM      3  C5  UNL d   1      -1.135  -1.800   1.383  0.00  0.00     0.002 A 
ATOM      4  C6  UNL d   1      -0.264  -2.613   0.661  0.00  0.00    -0.004 A 
ATOM      5  C7  UNL d   1       0.544  -2.057  -0.328  0.00  0.00     0.002 A 
ATOM      6  C8  UNL d   1       0.491  -0.686  -0.588  0.00  0.00     0.002 A 
ENDROOT
BRANCH   1   7
ATOM      7  C2  UNL d   1      -0.410   1.629  -0.126  0.00  0.00     0.056 C 
BRANCH   7   8
ATOM      8  C1  UNL d   1       0.861   2.372   0.301  0.00  0.00     0.007 C 
ATOM      9  C   UNL d   1       0.592   3.790   0.787  0.00  0.00     0.009 C 
ENDBRANCH   7   8
ENDBRANCH   1   7
TORSDOF 2
ENDMDL
