MODEL 1
REMARK minimizedAffinity -3.35257125
REMARK minimizedRMSD -1
REMARK  2 active torsions:
REMARK  status: ('A' for Active; 'I' for Inactive)
REMARK    1  A    between atoms: C1_2  and  C2_3 
REMARK    2  A    between atoms: C2_3  and  C3_4 
ROOT
ATOM      1  C3  UNL d   1       0.090   0.140  -0.400  0.00  0.00    -0.075 A 
ATOM      2  C4  UNL d   1      -0.883  -0.148   0.568  0.00  0.00     0.002 A 
ATOM      3  C5  UNL d   1      -1.002  -1.436   1.091  0.00  0.00     0.002 A 
ATOM      4  C6  UNL d   1      -0.160  -2.453   0.646  0.00  0.00    -0.004 A 
ATOM      5  C7  UNL d   1       0.799  -2.182  -0.327  0.00  0.00     0.002 A 
ATOM      6  C8  UNL d   1       0.924  -0.893  -0.849  0.00  0.00     0.002 A 
ENDROOT
BRANCH   1   7
ATOM      7  C2  UNL d   1       0.244   1.538  -0.949  0.00  0.00     0.056 C 
BRANCH   7   8
ATOM      8  C1  UNL d   1       0.189   2.636   0.118  0.00  0.00     0.007 C 
ATOM      9  C   UNL d   1       1.553   3.236   0.434  0.00  0.00     0.009 C 
ENDBRANCH   7   8
ENDBRANCH   1   7
TORSDOF 2
ENDMDL
