MODEL 1
REMARK minimizedAffinity 5.93180656
REMARK minimizedRMSD -1
REMARK  0 active torsions:
REMARK  status: ('A' for Active; 'I' for Inactive)
ROOT
ATOM      1  C1  BNZ d   1      -0.122  -5.623  -1.556  0.00  0.00     0.000 A 
ATOM      2  C2  BNZ d   1      -1.260  -5.888  -0.841  0.00  0.00     0.000 A 
ATOM      3  C3  BNZ d   1      -1.683  -5.037   0.142  0.00  0.00     0.000 A 
ATOM      4  C4  BNZ d   1      -0.948  -3.945   0.435  0.00  0.00     0.000 A 
ATOM      5  C5  BNZ d   1       0.206  -3.669  -0.271  0.00  0.00     0.000 A 
ATOM      6  C6  BNZ d   1       0.608  -4.507  -1.286  0.00  0.00     0.000 A 
ENDROOT
TORSDOF 0
ENDMDL
