MODEL 1
REMARK minimizedAffinity 5.64889383
REMARK minimizedRMSD -1
REMARK  0 active torsions:
REMARK  status: ('A' for Active; 'I' for Inactive)
ROOT
ATOM      1  C1  BNZ d   1       1.398  -0.268   2.791  0.00  0.00     0.000 A 
ATOM      2  C2  BNZ d   1       1.958  -0.668   1.607  0.00  0.00     0.000 A 
ATOM      3  C3  BNZ d   1       2.269  -1.981   1.389  0.00  0.00     0.000 A 
ATOM      4  C4  BNZ d   1       2.059  -2.884   2.368  0.00  0.00     0.000 A 
ATOM      5  C5  BNZ d   1       1.504  -2.495   3.571  0.00  0.00     0.000 A 
ATOM      6  C6  BNZ d   1       1.156  -1.179   3.773  0.00  0.00     0.000 A 
ENDROOT
TORSDOF 0
ENDMDL
