MODEL 1
REMARK minimizedAffinity 10.6290979
REMARK minimizedRMSD -1
REMARK  0 active torsions:
REMARK  status: ('A' for Active; 'I' for Inactive)
ROOT
ATOM      1  C1  BNZ d   1      -4.524   4.733  -5.887  0.00  0.00     0.000 A 
ATOM      2  C2  BNZ d   1      -5.639   5.273  -5.302  0.00  0.00     0.000 A 
ATOM      3  C3  BNZ d   1      -6.000   4.926  -4.030  0.00  0.00     0.000 A 
ATOM      4  C4  BNZ d   1      -5.270   4.012  -3.360  0.00  0.00     0.000 A 
ATOM      5  C5  BNZ d   1      -4.148   3.452  -3.939  0.00  0.00     0.000 A 
ATOM      6  C6  BNZ d   1      -3.766   3.832  -5.205  0.00  0.00     0.000 A 
ENDROOT
TORSDOF 0
ENDMDL
