MODEL 1
REMARK minimizedAffinity 6.44933224
REMARK minimizedRMSD -1
REMARK  0 active torsions:
REMARK  status: ('A' for Active; 'I' for Inactive)
ROOT
ATOM      1  C1  BNZ d   1       1.376  -0.514   3.316  0.00  0.00     0.000 A 
ATOM      2  C2  BNZ d   1       1.682  -0.547   1.981  0.00  0.00     0.000 A 
ATOM      3  C3  BNZ d   1       2.270  -1.649   1.426  0.00  0.00     0.000 A 
ATOM      4  C4  BNZ d   1       2.588  -2.698   2.211  0.00  0.00     0.000 A 
ATOM      5  C5  BNZ d   1       2.294  -2.676   3.560  0.00  0.00     0.000 A 
ATOM      6  C6  BNZ d   1       1.666  -1.581   4.108  0.00  0.00     0.000 A 
ENDROOT
TORSDOF 0
ENDMDL
