MODEL 1
REMARK minimizedAffinity 6.72647858
REMARK minimizedRMSD -1
REMARK  0 active torsions:
REMARK  status: ('A' for Active; 'I' for Inactive)
ROOT
ATOM      1  C1  BNZ d   1       0.125  -5.035  -1.817  0.00  0.00     0.000 A 
ATOM      2  C2  BNZ d   1      -1.189  -4.882  -1.461  0.00  0.00     0.000 A 
ATOM      3  C3  BNZ d   1      -1.536  -4.606  -0.168  0.00  0.00     0.000 A 
ATOM      4  C4  BNZ d   1      -0.574  -4.521   0.773  0.00  0.00     0.000 A 
ATOM      5  C5  BNZ d   1       0.754  -4.682   0.432  0.00  0.00     0.000 A 
ATOM      6  C6  BNZ d   1       1.103  -4.922  -0.877  0.00  0.00     0.000 A 
ENDROOT
TORSDOF 0
ENDMDL
