MODEL 1
REMARK minimizedAffinity 5.86809254
REMARK minimizedRMSD -1
REMARK  0 active torsions:
REMARK  status: ('A' for Active; 'I' for Inactive)
ROOT
ATOM      1  C1  BNZ d   1       2.209  -0.001   0.880  0.00  0.00     0.000 A 
ATOM      2  C2  BNZ d   1       1.301  -0.178   1.890  0.00  0.00     0.000 A 
ATOM      3  C3  BNZ d   1       1.075  -1.418   2.419  0.00  0.00     0.000 A 
ATOM      4  C4  BNZ d   1       1.727  -2.484   1.911  0.00  0.00     0.000 A 
ATOM      5  C5  BNZ d   1       2.638  -2.324   0.886  0.00  0.00     0.000 A 
ATOM      6  C6  BNZ d   1       2.892  -1.068   0.382  0.00  0.00     0.000 A 
ENDROOT
TORSDOF 0
ENDMDL
