MODEL 1
REMARK minimizedAffinity 9.64229679
REMARK minimizedRMSD -1
REMARK  0 active torsions:
REMARK  status: ('A' for Active; 'I' for Inactive)
ROOT
ATOM      1  C1  BNZ d   1       1.473  -0.377   1.847  0.00  0.00     0.000 A 
ATOM      2  C2  BNZ d   1       2.109  -0.963   0.786  0.00  0.00     0.000 A 
ATOM      3  C3  BNZ d   1       2.514  -2.267   0.845  0.00  0.00     0.000 A 
ATOM      4  C4  BNZ d   1       2.319  -2.971   1.979  0.00  0.00     0.000 A 
ATOM      5  C5  BNZ d   1       1.688  -2.391   3.062  0.00  0.00     0.000 A 
ATOM      6  C6  BNZ d   1       1.246  -1.090   2.984  0.00  0.00     0.000 A 
ENDROOT
TORSDOF 0
ENDMDL
