MODEL 1
REMARK minimizedAffinity 5.19990826
REMARK minimizedRMSD -1
REMARK  0 active torsions:
REMARK  status: ('A' for Active; 'I' for Inactive)
ROOT
ATOM      1  C1  BNZ d   1       1.398  -2.416   1.882  0.00  0.00     0.000 A 
ATOM      2  C2  BNZ d   1       1.882  -3.681   1.678  0.00  0.00     0.000 A 
ATOM      3  C3  BNZ d   1       2.975  -3.893   0.884  0.00  0.00     0.000 A 
ATOM      4  C4  BNZ d   1       3.556  -2.846   0.264  0.00  0.00     0.000 A 
ATOM      5  C5  BNZ d   1       3.074  -1.566   0.452  0.00  0.00     0.000 A 
ATOM      6  C6  BNZ d   1       1.999  -1.352   1.283  0.00  0.00     0.000 A 
ENDROOT
TORSDOF 0
ENDMDL
