MODEL 1
REMARK minimizedAffinity -3.47813773
REMARK minimizedRMSD -1
REMARK  0 active torsions:
REMARK  status: ('A' for Active; 'I' for Inactive)
ROOT
ATOM      1  C2' OXE d   1       0.163  -0.135  -0.022  0.00  0.00     0.078 C 
ATOM      2  C1' OXE d   1      -0.508   1.180   2.366  0.00  0.00     0.078 C 
ATOM      3  C1  OXE d   1      -0.473   1.997   1.098  0.00  0.00    -0.078 A 
ATOM      4  C2  OXE d   1      -0.098   1.355  -0.057  0.00  0.00    -0.078 A 
ATOM      5  C3  OXE d   1      -0.102   2.050  -1.264  0.00  0.00     0.003 A 
ATOM      6  C4  OXE d   1      -0.334   3.430  -1.286  0.00  0.00    -0.002 A 
ATOM      7  C5  OXE d   1      -0.679   4.111  -0.114  0.00  0.00    -0.002 A 
ATOM      8  C6  OXE d   1      -0.794   3.403   1.077  0.00  0.00     0.003 A 
ENDROOT
TORSDOF 0
ENDMDL
