MODEL 1
REMARK minimizedAffinity -2.05498862
REMARK minimizedRMSD -1
REMARK  0 active torsions:
REMARK  status: ('A' for Active; 'I' for Inactive)
ROOT
ATOM      1  C2' OXE d   1       1.252   0.347  -1.543  0.00  0.00     0.078 C 
ATOM      2  C1' OXE d   1       0.059   2.851  -1.112  0.00  0.00     0.078 C 
ATOM      3  C1  OXE d   1       0.197   1.924   0.071  0.00  0.00    -0.078 A 
ATOM      4  C2  OXE d   1       0.740   0.683  -0.159  0.00  0.00    -0.078 A 
ATOM      5  C3  OXE d   1       0.940  -0.189   0.907  0.00  0.00     0.003 A 
ATOM      6  C4  OXE d   1       0.454   0.125   2.182  0.00  0.00    -0.002 A 
ATOM      7  C5  OXE d   1      -0.137   1.369   2.429  0.00  0.00    -0.002 A 
ATOM      8  C6  OXE d   1      -0.235   2.294   1.396  0.00  0.00     0.003 A 
ENDROOT
TORSDOF 0
ENDMDL
