MODEL 1
REMARK minimizedAffinity -1.97273374
REMARK minimizedRMSD -1
REMARK  0 active torsions:
REMARK  status: ('A' for Active; 'I' for Inactive)
ROOT
ATOM      1  C2' OXE d   1      -0.173   1.699   2.182  0.00  0.00     0.078 C 
ATOM      2  C1' OXE d   1       1.498  -0.535   2.493  0.00  0.00     0.078 C 
ATOM      3  C1  OXE d   1       0.804  -0.355   1.166  0.00  0.00    -0.078 A 
ATOM      4  C2  OXE d   1      -0.048   0.716   1.038  0.00  0.00    -0.078 A 
ATOM      5  C3  OXE d   1      -0.671   0.959  -0.182  0.00  0.00     0.003 A 
ATOM      6  C4  OXE d   1      -0.557   0.040  -1.232  0.00  0.00    -0.002 A 
ATOM      7  C5  OXE d   1       0.274  -1.079  -1.109  0.00  0.00    -0.002 A 
ATOM      8  C6  OXE d   1       0.994  -1.267   0.066  0.00  0.00     0.003 A 
ENDROOT
TORSDOF 0
ENDMDL
