MODEL 1
REMARK minimizedAffinity -1.68232143
REMARK minimizedRMSD -1
REMARK  0 active torsions:
REMARK  status: ('A' for Active; 'I' for Inactive)
ROOT
ATOM      1  C2' OXE d   1      -0.831  -3.776   0.121  0.00  0.00     0.078 C 
ATOM      2  C1' OXE d   1       0.720  -3.014  -2.092  0.00  0.00     0.078 C 
ATOM      3  C1  OXE d   1       0.384  -1.956  -1.070  0.00  0.00    -0.078 A 
ATOM      4  C2  OXE d   1      -0.414  -2.327  -0.015  0.00  0.00    -0.078 A 
ATOM      5  C3  OXE d   1      -0.708  -1.404   0.985  0.00  0.00     0.003 A 
ATOM      6  C4  OXE d   1      -0.327  -0.064   0.846  0.00  0.00    -0.002 A 
ATOM      7  C5  OXE d   1       0.453   0.344  -0.241  0.00  0.00    -0.002 A 
ATOM      8  C6  OXE d   1       0.852  -0.597  -1.184  0.00  0.00     0.003 A 
ENDROOT
TORSDOF 0
ENDMDL
