MODEL 1
REMARK minimizedAffinity 0.016547963
REMARK minimizedRMSD -1
REMARK  0 active torsions:
REMARK  status: ('A' for Active; 'I' for Inactive)
ROOT
ATOM      1  C2' OXE d   1      -0.220   0.162   0.674  0.00  0.00     0.078 C 
ATOM      2  C1' OXE d   1       0.021   2.406   2.344  0.00  0.00     0.078 C 
ATOM      3  C1  OXE d   1      -0.132   2.645   0.863  0.00  0.00    -0.078 A 
ATOM      4  C2  OXE d   1      -0.202   1.540   0.048  0.00  0.00    -0.078 A 
ATOM      5  C3  OXE d   1      -0.397   1.704  -1.320  0.00  0.00     0.003 A 
ATOM      6  C4  OXE d   1      -0.369   2.982  -1.892  0.00  0.00    -0.002 A 
ATOM      7  C5  OXE d   1      -0.259   4.119  -1.085  0.00  0.00    -0.002 A 
ATOM      8  C6  OXE d   1      -0.182   3.970   0.295  0.00  0.00     0.003 A 
ENDROOT
TORSDOF 0
ENDMDL
