MODEL 1
REMARK minimizedAffinity -4.96292925
REMARK minimizedRMSD -1
REMARK  0 active torsions:
REMARK  status: ('A' for Active; 'I' for Inactive)
ROOT
ATOM      1  C2' OXE d   1       0.013   0.006   1.944  0.00  0.00     0.078 C 
ATOM      2  C1' OXE d   1       0.032  -0.826  -0.737  0.00  0.00     0.078 C 
ATOM      3  C1  OXE d   1      -0.148   0.645  -0.458  0.00  0.00    -0.078 A 
ATOM      4  C2  OXE d   1      -0.203   1.037   0.858  0.00  0.00    -0.078 A 
ATOM      5  C3  OXE d   1      -0.313   2.389   1.170  0.00  0.00     0.003 A 
ATOM      6  C4  OXE d   1      -0.522   3.335   0.159  0.00  0.00    -0.002 A 
ATOM      7  C5  OXE d   1      -0.510   2.952  -1.186  0.00  0.00    -0.002 A 
ATOM      8  C6  OXE d   1      -0.282   1.620  -1.513  0.00  0.00     0.003 A 
ENDROOT
TORSDOF 0
ENDMDL
