MODEL 1
REMARK minimizedAffinity -4.11492968
REMARK minimizedRMSD -1
REMARK  0 active torsions:
REMARK  status: ('A' for Active; 'I' for Inactive)
ROOT
ATOM      1  C2' OXE d   1      -0.375   2.640  -0.799  0.00  0.00     0.078 C 
ATOM      2  C1' OXE d   1       0.000   1.875   1.875  0.00  0.00     0.078 C 
ATOM      3  C1  OXE d   1       0.347   0.874   0.802  0.00  0.00    -0.078 A 
ATOM      4  C2  OXE d   1       0.116   1.240  -0.503  0.00  0.00    -0.078 A 
ATOM      5  C3  OXE d   1       0.470   0.375  -1.534  0.00  0.00     0.003 A 
ATOM      6  C4  OXE d   1       0.914  -0.922  -1.251  0.00  0.00    -0.002 A 
ATOM      7  C5  OXE d   1       1.119  -1.329   0.072  0.00  0.00    -0.002 A 
ATOM      8  C6  OXE d   1       0.881  -0.431   1.106  0.00  0.00     0.003 A 
ENDROOT
TORSDOF 0
ENDMDL
