MODEL 1
REMARK minimizedAffinity -3.04270697
REMARK minimizedRMSD -1
REMARK  0 active torsions:
REMARK  status: ('A' for Active; 'I' for Inactive)
ROOT
ATOM      1  C2' OXE d   1       0.226  -0.579  -1.078  0.00  0.00     0.078 C 
ATOM      2  C1' OXE d   1       0.631  -0.534   1.699  0.00  0.00     0.078 C 
ATOM      3  C1  OXE d   1       0.226   0.753   1.026  0.00  0.00    -0.078 A 
ATOM      4  C2  OXE d   1       0.076   0.733  -0.339  0.00  0.00    -0.078 A 
ATOM      5  C3  OXE d   1      -0.350   1.881  -1.003  0.00  0.00     0.003 A 
ATOM      6  C4  OXE d   1      -0.477   3.092  -0.313  0.00  0.00    -0.002 A 
ATOM      7  C5  OXE d   1      -0.290   3.144   1.072  0.00  0.00    -0.002 A 
ATOM      8  C6  OXE d   1       0.020   1.977   1.762  0.00  0.00     0.003 A 
ENDROOT
TORSDOF 0
ENDMDL
