MODEL 1
REMARK minimizedAffinity -1.04815793
REMARK minimizedRMSD -1
REMARK  0 active torsions:
REMARK  status: ('A' for Active; 'I' for Inactive)
ROOT
ATOM      1  C2' OXE d   1      -0.165   2.462  -0.848  0.00  0.00     0.078 C 
ATOM      2  C1' OXE d   1       0.329   1.916   1.861  0.00  0.00     0.078 C 
ATOM      3  C1  OXE d   1       0.425   0.771   0.883  0.00  0.00    -0.078 A 
ATOM      4  C2  OXE d   1       0.136   1.038  -0.433  0.00  0.00    -0.078 A 
ATOM      5  C3  OXE d   1       0.262   0.030  -1.385  0.00  0.00     0.003 A 
ATOM      6  C4  OXE d   1       0.531  -1.287  -0.992  0.00  0.00    -0.002 A 
ATOM      7  C5  OXE d   1       0.790  -1.588   0.350  0.00  0.00    -0.002 A 
ATOM      8  C6  OXE d   1       0.783  -0.565   1.291  0.00  0.00     0.003 A 
ENDROOT
TORSDOF 0
ENDMDL
