MODEL 1
REMARK minimizedAffinity -3.08970499
REMARK minimizedRMSD -1
REMARK  0 active torsions:
REMARK  status: ('A' for Active; 'I' for Inactive)
ROOT
ATOM      1  N1  IND d   1      -1.236   3.251   3.803  0.00  0.00    -0.196 N 
ATOM      2  C2  IND d   1      -0.531   4.309   4.305  0.00  0.00     0.054 A 
ATOM      3  C3  IND d   1       0.569   4.539   3.553  0.00  0.00    -0.031 A 
ATOM      4  C4  IND d   1       1.352   3.368   1.398  0.00  0.00     0.051 A 
ATOM      5  C5  IND d   1       1.055   2.319   0.573  0.00  0.00    -0.031 A 
ATOM      6  C6  IND d   1      -0.045   1.513   0.786  0.00  0.00     0.015 A 
ATOM      7  C7  IND d   1      -0.899   1.734   1.829  0.00  0.00    -0.016 A 
ATOM      8  C8  IND d   1      -0.596   2.793   2.673  0.00  0.00    -0.047 A 
ATOM      9  C9  IND d   1       0.542   3.588   2.487  0.00  0.00    -0.096 A 
ATOM     10  HN1 IND d   1      -1.959   2.926   4.138  0.00  0.00     0.298 HD
ENDROOT
TORSDOF 0
ENDMDL
