MODEL 1
REMARK minimizedAffinity 5.30597734
REMARK minimizedRMSD -1
REMARK  0 active torsions:
REMARK  status: ('A' for Active; 'I' for Inactive)
ROOT
ATOM      1  N1  IND d   1      -1.083   2.248   4.152  0.00  0.00    -0.196 N 
ATOM      2  C2  IND d   1      -0.248   3.076   4.848  0.00  0.00     0.054 A 
ATOM      3  C3  IND d   1       0.920   3.232   4.186  0.00  0.00    -0.031 A 
ATOM      4  C4  IND d   1       1.638   2.302   1.896  0.00  0.00     0.051 A 
ATOM      5  C5  IND d   1       1.228   1.464   0.897  0.00  0.00    -0.031 A 
ATOM      6  C6  IND d   1       0.001   0.834   0.931  0.00  0.00     0.015 A 
ATOM      7  C7  IND d   1      -0.871   1.028   1.965  0.00  0.00    -0.016 A 
ATOM      8  C8  IND d   1      -0.455   1.873   2.985  0.00  0.00    -0.047 A 
ATOM      9  C9  IND d   1       0.807   2.481   2.976  0.00  0.00    -0.096 A 
ATOM     10  HN1 IND d   1      -1.869   2.002   4.401  0.00  0.00     0.298 HD
ENDROOT
TORSDOF 0
ENDMDL
