MODEL 1
REMARK minimizedAffinity 1.622154
REMARK minimizedRMSD -1
REMARK  0 active torsions:
REMARK  status: ('A' for Active; 'I' for Inactive)
ROOT
ATOM      1  N1  IND d   1      -1.807   3.213   3.607  0.00  0.00    -0.196 N 
ATOM      2  C2  IND d   1      -1.209   4.176   4.372  0.00  0.00     0.054 A 
ATOM      3  C3  IND d   1       0.075   4.353   3.986  0.00  0.00    -0.031 A 
ATOM      4  C4  IND d   1       1.371   3.243   2.058  0.00  0.00     0.051 A 
ATOM      5  C5  IND d   1       1.259   2.273   1.103  0.00  0.00    -0.031 A 
ATOM      6  C6  IND d   1       0.094   1.554   0.928  0.00  0.00     0.015 A 
ATOM      7  C7  IND d   1      -1.010   1.787   1.698  0.00  0.00    -0.016 A 
ATOM      8  C8  IND d   1      -0.897   2.767   2.674  0.00  0.00    -0.047 A 
ATOM      9  C9  IND d   1       0.296   3.470   2.884  0.00  0.00    -0.096 A 
ATOM     10  HN1 IND d   1      -2.615   2.933   3.695  0.00  0.00     0.298 HD
ENDROOT
TORSDOF 0
ENDMDL
