MODEL 1
REMARK minimizedAffinity -3.44076467
REMARK minimizedRMSD -1
REMARK  0 active torsions:
REMARK  status: ('A' for Active; 'I' for Inactive)
ROOT
ATOM      1  N1  IND d   1      -0.024   4.512   3.823  0.00  0.00    -0.196 N 
ATOM      2  C2  IND d   1      -1.122   4.290   4.607  0.00  0.00     0.054 A 
ATOM      3  C3  IND d   1      -1.731   3.138   4.247  0.00  0.00    -0.031 A 
ATOM      4  C4  IND d   1      -1.042   1.409   2.469  0.00  0.00     0.051 A 
ATOM      5  C5  IND d   1      -0.130   1.192   1.474  0.00  0.00    -0.031 A 
ATOM      6  C6  IND d   1       0.886   2.087   1.208  0.00  0.00     0.015 A 
ATOM      7  C7  IND d   1       1.035   3.232   1.938  0.00  0.00    -0.016 A 
ATOM      8  C8  IND d   1       0.107   3.460   2.944  0.00  0.00    -0.047 A 
ATOM      9  C9  IND d   1      -0.951   2.576   3.191  0.00  0.00    -0.096 A 
ATOM     10  HN1 IND d   1       0.497   5.194   3.871  0.00  0.00     0.298 HD
ENDROOT
TORSDOF 0
ENDMDL
