MODEL 1
REMARK minimizedAffinity 11.4045773
REMARK minimizedRMSD -1
REMARK  0 active torsions:
REMARK  status: ('A' for Active; 'I' for Inactive)
ROOT
ATOM      1  N1  IND d   1      -0.539   0.994   1.766  0.00  0.00    -0.196 N 
ATOM      2  C2  IND d   1       0.369   0.661   0.800  0.00  0.00     0.054 A 
ATOM      3  C3  IND d   1       1.502   1.383   0.950  0.00  0.00    -0.031 A 
ATOM      4  C4  IND d   1       2.123   3.094   2.771  0.00  0.00     0.051 A 
ATOM      5  C5  IND d   1       1.604   3.756   3.848  0.00  0.00    -0.031 A 
ATOM      6  C6  IND d   1       0.320   3.526   4.297  0.00  0.00     0.015 A 
ATOM      7  C7  IND d   1      -0.493   2.611   3.690  0.00  0.00    -0.016 A 
ATOM      8  C8  IND d   1       0.027   1.941   2.591  0.00  0.00    -0.047 A 
ATOM      9  C9  IND d   1       1.315   2.202   2.105  0.00  0.00    -0.096 A 
ATOM     10  HN1 IND d   1      -1.330   0.668   1.845  0.00  0.00     0.298 HD
ENDROOT
TORSDOF 0
ENDMDL
