MODEL 1
REMARK minimizedAffinity 8.9585619
REMARK minimizedRMSD -1
REMARK  0 active torsions:
REMARK  status: ('A' for Active; 'I' for Inactive)
ROOT
ATOM      1  N1  IND d   1      -0.649   1.562   1.467  0.00  0.00    -0.196 N 
ATOM      2  C2  IND d   1       0.100   0.986   0.479  0.00  0.00     0.054 A 
ATOM      3  C3  IND d   1       1.388   1.388   0.570  0.00  0.00    -0.031 A 
ATOM      4  C4  IND d   1       2.508   2.905   2.323  0.00  0.00     0.051 A 
ATOM      5  C5  IND d   1       2.225   3.698   3.400  0.00  0.00    -0.031 A 
ATOM      6  C6  IND d   1       0.944   3.820   3.899  0.00  0.00     0.015 A 
ATOM      7  C7  IND d   1      -0.104   3.141   3.345  0.00  0.00    -0.016 A 
ATOM      8  C8  IND d   1       0.178   2.341   2.247  0.00  0.00    -0.047 A 
ATOM      9  C9  IND d   1       1.469   2.246   1.709  0.00  0.00    -0.096 A 
ATOM     10  HN1 IND d   1      -1.494   1.456   1.583  0.00  0.00     0.298 HD
ENDROOT
TORSDOF 0
ENDMDL
