MODEL 1
REMARK minimizedAffinity 8.40741539
REMARK minimizedRMSD -1
REMARK  0 active torsions:
REMARK  status: ('A' for Active; 'I' for Inactive)
ROOT
ATOM      1  N1  IND d   1       3.069   5.085  -5.473  0.00  0.00    -0.196 N 
ATOM      2  C2  IND d   1       4.034   6.000  -5.790  0.00  0.00     0.054 A 
ATOM      3  C3  IND d   1       5.218   5.380  -6.000  0.00  0.00    -0.031 A 
ATOM      4  C4  IND d   1       5.776   2.867  -5.977  0.00  0.00     0.051 A 
ATOM      5  C5  IND d   1       5.229   1.645  -5.703  0.00  0.00    -0.031 A 
ATOM      6  C6  IND d   1       3.907   1.504  -5.334  0.00  0.00     0.015 A 
ATOM      7  C7  IND d   1       3.076   2.584  -5.235  0.00  0.00    -0.016 A 
ATOM      8  C8  IND d   1       3.629   3.827  -5.506  0.00  0.00    -0.047 A 
ATOM      9  C9  IND d   1       4.981   3.981  -5.840  0.00  0.00    -0.096 A 
ATOM     10  HN1 IND d   1       2.249   5.265  -5.285  0.00  0.00     0.298 HD
ENDROOT
TORSDOF 0
ENDMDL
