MODEL 1
REMARK minimizedAffinity 8.06121063
REMARK minimizedRMSD -1
REMARK  0 active torsions:
REMARK  status: ('A' for Active; 'I' for Inactive)
ROOT
ATOM      1  N1  IND d   1      -4.024   0.423   2.513  0.00  0.00    -0.196 N 
ATOM      2  C2  IND d   1      -4.952  -0.214   3.290  0.00  0.00     0.054 A 
ATOM      3  C3  IND d   1      -4.456  -1.385   3.750  0.00  0.00    -0.031 A 
ATOM      4  C4  IND d   1      -2.113  -2.405   3.435  0.00  0.00     0.051 A 
ATOM      5  C5  IND d   1      -0.933  -2.209   2.774  0.00  0.00    -0.031 A 
ATOM      6  C6  IND d   1      -0.718  -1.102   1.979  0.00  0.00     0.015 A 
ATOM      7  C7  IND d   1      -1.675  -0.140   1.823  0.00  0.00    -0.016 A 
ATOM      8  C8  IND d   1      -2.877  -0.339   2.487  0.00  0.00    -0.047 A 
ATOM      9  C9  IND d   1      -3.117  -1.481   3.261  0.00  0.00    -0.096 A 
ATOM     10  HN1 IND d   1      -4.139   1.173   2.109  0.00  0.00     0.298 HD
ENDROOT
TORSDOF 0
ENDMDL
