MODEL 1
REMARK minimizedAffinity 4.55987549
REMARK minimizedRMSD -1
REMARK  0 active torsions:
REMARK  status: ('A' for Active; 'I' for Inactive)
ROOT
ATOM      1  N1  IND d   1      -1.947   3.629   4.226  0.00  0.00    -0.196 N 
ATOM      2  C2  IND d   1      -1.198   4.485   4.984  0.00  0.00     0.054 A 
ATOM      3  C3  IND d   1       0.098   4.443   4.600  0.00  0.00    -0.031 A 
ATOM      4  C4  IND d   1       1.193   3.119   2.683  0.00  0.00     0.051 A 
ATOM      5  C5  IND d   1       0.921   2.173   1.734  0.00  0.00    -0.031 A 
ATOM      6  C6  IND d   1      -0.347   1.656   1.562  0.00  0.00     0.015 A 
ATOM      7  C7  IND d   1      -1.397   2.076   2.329  0.00  0.00    -0.016 A 
ATOM      8  C8  IND d   1      -1.123   3.030   3.298  0.00  0.00    -0.047 A 
ATOM      9  C9  IND d   1       0.170   3.528   3.505  0.00  0.00    -0.096 A 
ATOM     10  HN1 IND d   1      -2.790   3.488   4.314  0.00  0.00     0.298 HD
ENDROOT
TORSDOF 0
ENDMDL
