MODEL 1
REMARK minimizedAffinity 1.87349367
REMARK minimizedRMSD -1
REMARK  0 active torsions:
REMARK  status: ('A' for Active; 'I' for Inactive)
ROOT
ATOM      1  N1  IND d   1      -5.457  -0.301   2.378  0.00  0.00    -0.196 N 
ATOM      2  C2  IND d   1      -5.959  -1.314   3.147  0.00  0.00     0.054 A 
ATOM      3  C3  IND d   1      -5.000  -2.233   3.399  0.00  0.00    -0.031 A 
ATOM      4  C4  IND d   1      -2.513  -2.225   2.734  0.00  0.00     0.051 A 
ATOM      5  C5  IND d   1      -1.597  -1.528   1.998  0.00  0.00    -0.031 A 
ATOM      6  C6  IND d   1      -1.927  -0.361   1.340  0.00  0.00     0.015 A 
ATOM      7  C7  IND d   1      -3.188   0.161   1.403  0.00  0.00    -0.016 A 
ATOM      8  C8  IND d   1      -4.123  -0.549   2.144  0.00  0.00    -0.047 A 
ATOM      9  C9  IND d   1      -3.805  -1.756   2.779  0.00  0.00    -0.096 A 
ATOM     10  HN1 IND d   1      -5.901   0.376   2.090  0.00  0.00     0.298 HD
ENDROOT
TORSDOF 0
ENDMDL
