MODEL 1
REMARK minimizedAffinity 13.1649227
REMARK minimizedRMSD -1
REMARK  0 active torsions:
REMARK  status: ('A' for Active; 'I' for Inactive)
ROOT
ATOM      1  N1  IND d   1      -2.375   2.629   4.861  0.00  0.00    -0.196 N 
ATOM      2  C2  IND d   1      -1.568   3.420   5.631  0.00  0.00     0.054 A 
ATOM      3  C3  IND d   1      -0.408   3.677   4.986  0.00  0.00    -0.031 A 
ATOM      4  C4  IND d   1       0.335   2.987   2.619  0.00  0.00     0.051 A 
ATOM      5  C5  IND d   1      -0.048   2.231   1.548  0.00  0.00    -0.031 A 
ATOM      6  C6  IND d   1      -1.252   1.556   1.524  0.00  0.00     0.015 A 
ATOM      7  C7  IND d   1      -2.126   1.624   2.572  0.00  0.00    -0.016 A 
ATOM      8  C8  IND d   1      -1.737   2.385   3.665  0.00  0.00    -0.047 A 
ATOM      9  C9  IND d   1      -0.498   3.037   3.712  0.00  0.00    -0.096 A 
ATOM     10  HN1 IND d   1      -3.150   2.333   5.087  0.00  0.00     0.298 HD
ENDROOT
TORSDOF 0
ENDMDL
