MODEL 1
REMARK minimizedAffinity 8.57575703
REMARK minimizedRMSD -1
REMARK  0 active torsions:
REMARK  status: ('A' for Active; 'I' for Inactive)
ROOT
ATOM      1  N1  IND d   1       2.928   4.648   3.079  0.00  0.00    -0.196 N 
ATOM      2  C2  IND d   1       3.230   5.184   4.300  0.00  0.00     0.054 A 
ATOM      3  C3  IND d   1       2.278   4.861   5.204  0.00  0.00    -0.031 A 
ATOM      4  C4  IND d   1       0.190   3.382   4.923  0.00  0.00     0.051 A 
ATOM      5  C5  IND d   1      -0.528   2.699   3.982  0.00  0.00    -0.031 A 
ATOM      6  C6  IND d   1      -0.121   2.628   2.665  0.00  0.00     0.015 A 
ATOM      7  C7  IND d   1       1.030   3.229   2.242  0.00  0.00    -0.016 A 
ATOM      8  C8  IND d   1       1.758   3.929   3.193  0.00  0.00    -0.047 A 
ATOM      9  C9  IND d   1       1.328   4.041   4.522  0.00  0.00    -0.096 A 
ATOM     10  HN1 IND d   1       3.390   4.744   2.361  0.00  0.00     0.298 HD
ENDROOT
TORSDOF 0
ENDMDL
