MODEL 1
REMARK minimizedAffinity 10.7349091
REMARK minimizedRMSD -1
REMARK  0 active torsions:
REMARK  status: ('A' for Active; 'I' for Inactive)
ROOT
ATOM      1  N1  IND d   1      -1.238   2.974   4.535  0.00  0.00    -0.196 N 
ATOM      2  C2  IND d   1      -0.055   3.634   4.722  0.00  0.00     0.054 A 
ATOM      3  C3  IND d   1       0.843   3.267   3.782  0.00  0.00    -0.031 A 
ATOM      4  C4  IND d   1       0.556   1.674   1.779  0.00  0.00     0.051 A 
ATOM      5  C5  IND d   1      -0.334   0.805   1.213  0.00  0.00    -0.031 A 
ATOM      6  C6  IND d   1      -1.598   0.613   1.734  0.00  0.00     0.015 A 
ATOM      7  C7  IND d   1      -2.024   1.294   2.839  0.00  0.00    -0.016 A 
ATOM      8  C8  IND d   1      -1.120   2.172   3.421  0.00  0.00    -0.047 A 
ATOM      9  C9  IND d   1       0.178   2.339   2.922  0.00  0.00    -0.096 A 
ATOM     10  HN1 IND d   1      -1.937   3.047   5.030  0.00  0.00     0.298 HD
ENDROOT
TORSDOF 0
ENDMDL
