MODEL 1
REMARK minimizedAffinity -0.856985748
REMARK minimizedRMSD -1
REMARK  0 active torsions:
REMARK  status: ('A' for Active; 'I' for Inactive)
ROOT
ATOM      1  N1  IND d   1      -1.316   0.970   2.146  0.00  0.00    -0.196 N 
ATOM      2  C2  IND d   1      -1.302   0.394   0.906  0.00  0.00     0.054 A 
ATOM      3  C3  IND d   1      -0.318   0.930   0.150  0.00  0.00    -0.031 A 
ATOM      4  C4  IND d   1       1.453   2.690   0.777  0.00  0.00     0.051 A 
ATOM      5  C5  IND d   1       1.821   3.536   1.786  0.00  0.00    -0.031 A 
ATOM      6  C6  IND d   1       1.151   3.568   2.991  0.00  0.00     0.015 A 
ATOM      7  C7  IND d   1       0.089   2.744   3.238  0.00  0.00    -0.016 A 
ATOM      8  C8  IND d   1      -0.292   1.889   2.214  0.00  0.00    -0.047 A 
ATOM      9  C9  IND d   1       0.358   1.882   0.973  0.00  0.00    -0.096 A 
ATOM     10  HN1 IND d   1      -1.871   0.789   2.777  0.00  0.00     0.298 HD
ENDROOT
TORSDOF 0
ENDMDL
