MODEL 1
REMARK minimizedAffinity 5.64702702
REMARK minimizedRMSD -1
REMARK  0 active torsions:
REMARK  status: ('A' for Active; 'I' for Inactive)
ROOT
ATOM      1  N1  IND d   1       1.467   3.410   4.275  0.00  0.00    -0.196 N 
ATOM      2  C2  IND d   1       0.672   3.918   3.285  0.00  0.00     0.054 A 
ATOM      3  C3  IND d   1       1.376   4.775   2.511  0.00  0.00    -0.031 A 
ATOM      4  C4  IND d   1       3.868   5.412   2.624  0.00  0.00     0.051 A 
ATOM      5  C5  IND d   1       4.992   5.233   3.380  0.00  0.00    -0.031 A 
ATOM      6  C6  IND d   1       5.000   4.418   4.494  0.00  0.00     0.015 A 
ATOM      7  C7  IND d   1       3.881   3.740   4.888  0.00  0.00    -0.016 A 
ATOM      8  C8  IND d   1       2.736   3.926   4.127  0.00  0.00    -0.047 A 
ATOM      9  C9  IND d   1       2.710   4.784   3.021  0.00  0.00    -0.096 A 
ATOM     10  HN1 IND d   1       1.216   2.860   4.887  0.00  0.00     0.298 HD
ENDROOT
TORSDOF 0
ENDMDL
