MODEL 1
REMARK minimizedAffinity 8.64800739
REMARK minimizedRMSD -1
REMARK  0 active torsions:
REMARK  status: ('A' for Active; 'I' for Inactive)
ROOT
ATOM      1  N1  IND d   1      -0.432   0.973   1.395  0.00  0.00    -0.196 N 
ATOM      2  C2  IND d   1      -1.646   0.347   1.432  0.00  0.00     0.054 A 
ATOM      3  C3  IND d   1      -2.377   0.798   2.477  0.00  0.00    -0.031 A 
ATOM      4  C4  IND d   1      -1.816   2.634   4.192  0.00  0.00     0.051 A 
ATOM      5  C5  IND d   1      -0.808   3.468   4.587  0.00  0.00    -0.031 A 
ATOM      6  C6  IND d   1       0.401   3.516   3.923  0.00  0.00     0.015 A 
ATOM      7  C7  IND d   1       0.643   2.736   2.827  0.00  0.00    -0.016 A 
ATOM      8  C8  IND d   1      -0.376   1.883   2.428  0.00  0.00    -0.047 A 
ATOM      9  C9  IND d   1      -1.589   1.799   3.124  0.00  0.00    -0.096 A 
ATOM     10  HN1 IND d   1       0.192   0.824   0.823  0.00  0.00     0.298 HD
ENDROOT
TORSDOF 0
ENDMDL
