MODEL 1
REMARK minimizedAffinity -2.3726418
REMARK minimizedRMSD -1
REMARK  1 active torsions:
REMARK  status: ('A' for Active; 'I' for Inactive)
REMARK    1  A    between atoms: C1_2  and  C2_3 
ROOT
ATOM      1  C2  UNL d   1      -1.212   0.266   0.422  0.00  0.00    -0.076 A 
ATOM      2  C3  UNL d   1      -1.213  -1.112   0.697  0.00  0.00     0.004 A 
ATOM      3  C4  UNL d   1      -0.108  -1.905   0.393  0.00  0.00    -0.003 A 
ATOM      4  C5  UNL d   1       1.017  -1.333  -0.190  0.00  0.00     0.000 A 
ATOM      5  C6  UNL d   1       1.042   0.036  -0.454  0.00  0.00     0.000 A 
ATOM      6  C7  UNL d   1      -0.058   0.853  -0.139  0.00  0.00    -0.073 A 
ATOM      7  C8  UNL d   1       0.022   2.322  -0.450  0.00  0.00     0.078 C 
ENDROOT
BRANCH   1   8
ATOM      8  C1  UNL d   1      -2.450   1.071   0.749  0.00  0.00     0.053 C 
ATOM      9  C   UNL d   1      -3.668   0.612  -0.038  0.00  0.00     0.018 C 
ENDBRANCH   1   8
TORSDOF 1
ENDMDL
