MODEL 1
REMARK minimizedAffinity -0.200489521
REMARK minimizedRMSD -1
REMARK  1 active torsions:
REMARK  status: ('A' for Active; 'I' for Inactive)
REMARK    1  A    between atoms: C1_2  and  C2_3 
ROOT
ATOM      1  C2  UNL d   1      -0.815   0.258  -0.050  0.00  0.00    -0.076 A 
ATOM      2  C3  UNL d   1      -2.139  -0.182   0.125  0.00  0.00     0.004 A 
ATOM      3  C4  UNL d   1      -3.016   0.500   0.966  0.00  0.00    -0.003 A 
ATOM      4  C5  UNL d   1      -2.584   1.634   1.645  0.00  0.00     0.000 A 
ATOM      5  C6  UNL d   1      -1.280   2.094   1.470  0.00  0.00     0.000 A 
ATOM      6  C7  UNL d   1      -0.387   1.428   0.613  0.00  0.00    -0.073 A 
ATOM      7  C8  UNL d   1       1.010   1.965   0.465  0.00  0.00     0.078 C 
ENDROOT
BRANCH   1   8
ATOM      8  C1  UNL d   1       0.099  -0.539  -0.954  0.00  0.00     0.053 C 
ATOM      9  C   UNL d   1       0.179  -2.004  -0.557  0.00  0.00     0.018 C 
ENDBRANCH   1   8
TORSDOF 1
ENDMDL
