MODEL 1
REMARK minimizedAffinity -5.81708336
REMARK minimizedRMSD -1
REMARK  1 active torsions:
REMARK  status: ('A' for Active; 'I' for Inactive)
REMARK    1  A    between atoms: C1_2  and  C2_3 
ROOT
ATOM      1  C2  UNL d   1       0.495   0.539  -0.329  0.00  0.00    -0.076 A 
ATOM      2  C3  UNL d   1       1.526   1.194   0.366  0.00  0.00     0.004 A 
ATOM      3  C4  UNL d   1       2.666   0.505   0.776  0.00  0.00    -0.003 A 
ATOM      4  C5  UNL d   1       2.794  -0.851   0.498  0.00  0.00     0.000 A 
ATOM      5  C6  UNL d   1       1.789  -1.514  -0.206  0.00  0.00     0.000 A 
ATOM      6  C7  UNL d   1       0.640  -0.830  -0.641  0.00  0.00    -0.073 A 
ATOM      7  C8  UNL d   1      -0.415  -1.596  -1.391  0.00  0.00     0.078 C 
ENDROOT
BRANCH   1   8
ATOM      8  C1  UNL d   1      -0.730   1.331  -0.725  0.00  0.00     0.053 C 
ATOM      9  C   UNL d   1      -1.961   0.942   0.080  0.00  0.00     0.018 C 
ENDBRANCH   1   8
TORSDOF 1
ENDMDL
