MODEL 1
REMARK minimizedAffinity -1.13005447
REMARK minimizedRMSD -1
REMARK  1 active torsions:
REMARK  status: ('A' for Active; 'I' for Inactive)
REMARK    1  A    between atoms: C1_2  and  C2_3 
ROOT
ATOM      1  C2  UNL d   1      -0.964  -0.194   0.615  0.00  0.00    -0.076 A 
ATOM      2  C3  UNL d   1      -1.169  -1.581   0.715  0.00  0.00     0.004 A 
ATOM      3  C4  UNL d   1      -0.369  -2.478   0.010  0.00  0.00    -0.003 A 
ATOM      4  C5  UNL d   1       0.650  -2.002  -0.808  0.00  0.00     0.000 A 
ATOM      5  C6  UNL d   1       0.879  -0.630  -0.906  0.00  0.00     0.000 A 
ATOM      6  C7  UNL d   1       0.092   0.287  -0.189  0.00  0.00    -0.073 A 
ATOM      7  C8  UNL d   1       0.380   1.756  -0.337  0.00  0.00     0.078 C 
ENDROOT
BRANCH   1   8
ATOM      8  C1  UNL d   1      -1.880   0.732   1.382  0.00  0.00     0.053 C 
ATOM      9  C   UNL d   1      -3.277   0.156   1.556  0.00  0.00     0.018 C 
ENDBRANCH   1   8
TORSDOF 1
ENDMDL
