MODEL 1
REMARK minimizedAffinity 1.52902722
REMARK minimizedRMSD -1
REMARK  1 active torsions:
REMARK  status: ('A' for Active; 'I' for Inactive)
REMARK    1  A    between atoms: C1_2  and  C2_3 
ROOT
ATOM      1  C2  UNL d   1       0.656   0.337  -0.206  0.00  0.00    -0.076 A 
ATOM      2  C3  UNL d   1       1.905  -0.308  -0.244  0.00  0.00     0.004 A 
ATOM      3  C4  UNL d   1       1.994  -1.687  -0.422  0.00  0.00    -0.003 A 
ATOM      4  C5  UNL d   1       0.837  -2.444  -0.566  0.00  0.00     0.000 A 
ATOM      5  C6  UNL d   1      -0.409  -1.818  -0.549  0.00  0.00     0.000 A 
ATOM      6  C7  UNL d   1      -0.517  -0.426  -0.386  0.00  0.00    -0.073 A 
ATOM      7  C8  UNL d   1      -1.886   0.195  -0.369  0.00  0.00     0.078 C 
ENDROOT
BRANCH   1   8
ATOM      8  C1  UNL d   1       0.620   1.832   0.018  0.00  0.00     0.053 C 
ATOM      9  C   UNL d   1       2.007   2.427   0.210  0.00  0.00     0.018 C 
ENDBRANCH   1   8
TORSDOF 1
ENDMDL
