MODEL 1
REMARK minimizedAffinity -3.4190383
REMARK minimizedRMSD -1
REMARK  1 active torsions:
REMARK  status: ('A' for Active; 'I' for Inactive)
REMARK    1  A    between atoms: C1_2  and  C2_3 
ROOT
ATOM      1  C2  UNL d   1       1.527  -0.012   0.428  0.00  0.00    -0.076 A 
ATOM      2  C3  UNL d   1       0.297  -0.662   0.228  0.00  0.00     0.004 A 
ATOM      3  C4  UNL d   1      -0.856   0.061  -0.074  0.00  0.00    -0.003 A 
ATOM      4  C5  UNL d   1      -0.796   1.446  -0.183  0.00  0.00     0.000 A 
ATOM      5  C6  UNL d   1       0.420   2.106  -0.006  0.00  0.00     0.000 A 
ATOM      6  C7  UNL d   1       1.594   1.390   0.284  0.00  0.00    -0.073 A 
ATOM      7  C8  UNL d   1       2.877   2.153   0.471  0.00  0.00     0.078 C 
ENDROOT
BRANCH   1   8
ATOM      8  C1  UNL d   1       2.738  -0.847   0.780  0.00  0.00     0.053 C 
ATOM      9  C   UNL d   1       3.375  -1.494  -0.440  0.00  0.00     0.018 C 
ENDBRANCH   1   8
TORSDOF 1
ENDMDL
