MODEL 1
REMARK minimizedAffinity -5.94480801
REMARK minimizedRMSD -1
REMARK  1 active torsions:
REMARK  status: ('A' for Active; 'I' for Inactive)
REMARK    1  A    between atoms: C1_2  and  C2_3 
ROOT
ATOM      1  C2  UNL d   1       0.184   0.142  -0.247  0.00  0.00    -0.076 A 
ATOM      2  C3  UNL d   1       0.274  -1.256  -0.375  0.00  0.00     0.004 A 
ATOM      3  C4  UNL d   1       1.413  -1.943   0.041  0.00  0.00    -0.003 A 
ATOM      4  C5  UNL d   1       2.481  -1.244   0.593  0.00  0.00     0.000 A 
ATOM      5  C6  UNL d   1       2.402   0.140   0.744  0.00  0.00     0.000 A 
ATOM      6  C7  UNL d   1       1.254   0.846   0.345  0.00  0.00    -0.073 A 
ATOM      7  C8  UNL d   1       1.226   2.339   0.525  0.00  0.00     0.078 C 
ENDROOT
BRANCH   1   8
ATOM      8  C1  UNL d   1      -1.065   0.835  -0.741  0.00  0.00     0.053 C 
ATOM      9  C   UNL d   1      -2.282   0.526   0.117  0.00  0.00     0.018 C 
ENDBRANCH   1   8
TORSDOF 1
ENDMDL
