MODEL 1
REMARK minimizedAffinity -3.22153711
REMARK minimizedRMSD -1
REMARK  0 active torsions:
REMARK  status: ('A' for Active; 'I' for Inactive)
ROOT
ATOM      1  C   UNL d   1      -0.710  -0.244   3.822  0.00  0.00     0.023 A 
ATOM      2  C1  UNL d   1       0.279   0.652   3.417  0.00  0.00     0.003 A 
ATOM      3  C2  UNL d   1       0.566   0.811   2.060  0.00  0.00     0.048 A 
ATOM      4  C3  UNL d   1      -0.142   0.072   1.112  0.00  0.00     0.023 A 
ATOM      5  C4  UNL d   1      -1.133  -0.825   1.513  0.00  0.00     0.048 A 
ATOM      6  C5  UNL d   1      -1.416  -0.982   2.871  0.00  0.00     0.003 A 
ATOM      7  I   UNL d   1       0.283   0.307  -0.909  0.00  0.00    -0.146 I 
ENDROOT
TORSDOF 0
ENDMDL
