MODEL 1
REMARK minimizedAffinity 1.64703155
REMARK minimizedRMSD -1
REMARK  0 active torsions:
REMARK  status: ('A' for Active; 'I' for Inactive)
ROOT
ATOM      1  C   UNL d   1      -1.169  -1.626   0.870  0.00  0.00     0.023 A 
ATOM      2  C1  UNL d   1      -0.490  -0.609   0.200  0.00  0.00     0.003 A 
ATOM      3  C2  UNL d   1      -0.051   0.517   0.900  0.00  0.00     0.048 A 
ATOM      4  C3  UNL d   1      -0.294   0.618   2.270  0.00  0.00     0.023 A 
ATOM      5  C4  UNL d   1      -0.973  -0.398   2.944  0.00  0.00     0.048 A 
ATOM      6  C5  UNL d   1      -1.410  -1.521   2.240  0.00  0.00     0.003 A 
ATOM      7  I   UNL d   1       0.359   2.293   3.314  0.00  0.00    -0.146 I 
ENDROOT
TORSDOF 0
ENDMDL
