MODEL 1
REMARK minimizedAffinity -2.53501415
REMARK minimizedRMSD -1
REMARK  0 active torsions:
REMARK  status: ('A' for Active; 'I' for Inactive)
ROOT
ATOM      1  C   UNL d   1      -2.226   0.615   1.948  0.00  0.00     0.023 A 
ATOM      2  C1  UNL d   1      -1.345   0.746   3.022  0.00  0.00     0.003 A 
ATOM      3  C2  UNL d   1       0.008   1.000   2.790  0.00  0.00     0.048 A 
ATOM      4  C3  UNL d   1       0.474   1.121   1.482  0.00  0.00     0.023 A 
ATOM      5  C4  UNL d   1      -0.403   0.991   0.404  0.00  0.00     0.048 A 
ATOM      6  C5  UNL d   1      -1.755   0.737   0.641  0.00  0.00     0.003 A 
ATOM      7  I   UNL d   1       2.488   1.498   1.133  0.00  0.00    -0.146 I 
ENDROOT
TORSDOF 0
ENDMDL
