MODEL 1
REMARK minimizedAffinity -2.67045307
REMARK minimizedRMSD -1
REMARK  0 active torsions:
REMARK  status: ('A' for Active; 'I' for Inactive)
ROOT
ATOM      1  C   UNL d   1      -1.601  -0.343   1.337  0.00  0.00     0.023 A 
ATOM      2  C1  UNL d   1      -2.227   0.074   0.162  0.00  0.00     0.003 A 
ATOM      3  C2  UNL d   1      -1.537   0.030  -1.051  0.00  0.00     0.048 A 
ATOM      4  C3  UNL d   1      -0.222  -0.432  -1.082  0.00  0.00     0.023 A 
ATOM      5  C4  UNL d   1       0.408  -0.850   0.091  0.00  0.00     0.048 A 
ATOM      6  C5  UNL d   1      -0.285  -0.804   1.302  0.00  0.00     0.003 A 
ATOM      7  I   UNL d   1       0.807  -0.497  -2.887  0.00  0.00    -0.146 I 
ENDROOT
TORSDOF 0
ENDMDL
