MODEL 1
REMARK minimizedAffinity -4.19558477
REMARK minimizedRMSD -1
REMARK  0 active torsions:
REMARK  status: ('A' for Active; 'I' for Inactive)
ROOT
ATOM      1  C   UNL d   1      -0.034  -0.435   3.025  0.00  0.00     0.023 A 
ATOM      2  C1  UNL d   1      -1.123  -0.648   2.180  0.00  0.00     0.003 A 
ATOM      3  C2  UNL d   1      -0.966  -0.543   0.796  0.00  0.00     0.048 A 
ATOM      4  C3  UNL d   1       0.283  -0.226   0.265  0.00  0.00     0.023 A 
ATOM      5  C4  UNL d   1       1.376  -0.013   1.107  0.00  0.00     0.048 A 
ATOM      6  C5  UNL d   1       1.214  -0.118   2.489  0.00  0.00     0.003 A 
ATOM      7  I   UNL d   1       0.520  -0.070  -1.794  0.00  0.00    -0.146 I 
ENDROOT
TORSDOF 0
ENDMDL
