MODEL 1
REMARK minimizedAffinity -3.95819116
REMARK minimizedRMSD -1
REMARK  0 active torsions:
REMARK  status: ('A' for Active; 'I' for Inactive)
ROOT
ATOM      1  C   UNL d   1      -0.463  -0.491   3.212  0.00  0.00     0.023 A 
ATOM      2  C1  UNL d   1       0.812  -0.135   2.772  0.00  0.00     0.003 A 
ATOM      3  C2  UNL d   1       1.046   0.084   1.413  0.00  0.00     0.048 A 
ATOM      4  C3  UNL d   1       0.001  -0.053   0.500  0.00  0.00     0.023 A 
ATOM      5  C4  UNL d   1      -1.276  -0.409   0.936  0.00  0.00     0.048 A 
ATOM      6  C5  UNL d   1      -1.506  -0.628   2.296  0.00  0.00     0.003 A 
ATOM      7  I   UNL d   1       0.348   0.272  -1.523  0.00  0.00    -0.146 I 
ENDROOT
TORSDOF 0
ENDMDL
