MODEL 1
REMARK minimizedAffinity -3.0131557
REMARK minimizedRMSD -1
REMARK  0 active torsions:
REMARK  status: ('A' for Active; 'I' for Inactive)
ROOT
ATOM      1  C   UNL d   1       2.180   0.261   2.807  0.00  0.00     0.023 A 
ATOM      2  C1  UNL d   1       2.502   0.437   1.461  0.00  0.00     0.003 A 
ATOM      3  C2  UNL d   1       1.488   0.588   0.513  0.00  0.00     0.048 A 
ATOM      4  C3  UNL d   1       0.154   0.563   0.917  0.00  0.00     0.023 A 
ATOM      5  C4  UNL d   1      -0.173   0.387   2.263  0.00  0.00     0.048 A 
ATOM      6  C5  UNL d   1       0.844   0.236   3.207  0.00  0.00     0.003 A 
ATOM      7  I   UNL d   1      -1.357   0.787  -0.492  0.00  0.00    -0.146 I 
ENDROOT
TORSDOF 0
ENDMDL
