MODEL 1
REMARK minimizedAffinity -2.60927105
REMARK minimizedRMSD -1
REMARK  0 active torsions:
REMARK  status: ('A' for Active; 'I' for Inactive)
ROOT
ATOM      1  C   UNL d   1      -0.409   0.510   1.778  0.00  0.00     0.023 A 
ATOM      2  C1  UNL d   1      -1.268   0.584   0.682  0.00  0.00     0.003 A 
ATOM      3  C2  UNL d   1      -0.816   0.215  -0.587  0.00  0.00     0.048 A 
ATOM      4  C3  UNL d   1       0.495  -0.229  -0.752  0.00  0.00     0.023 A 
ATOM      5  C4  UNL d   1       1.358  -0.306   0.343  0.00  0.00     0.048 A 
ATOM      6  C5  UNL d   1       0.902   0.065   1.609  0.00  0.00     0.003 A 
ATOM      7  I   UNL d   1       1.170  -0.779  -2.639  0.00  0.00    -0.146 I 
ENDROOT
TORSDOF 0
ENDMDL
