MODEL 1
REMARK minimizedAffinity -0.521319091
REMARK minimizedRMSD -1
REMARK  0 active torsions:
REMARK  status: ('A' for Active; 'I' for Inactive)
ROOT
ATOM      1  C   UNL d   1      -1.335   0.779   0.369  0.00  0.00     0.023 A 
ATOM      2  C1  UNL d   1      -0.350  -0.184   0.591  0.00  0.00     0.003 A 
ATOM      3  C2  UNL d   1       0.396  -0.680  -0.480  0.00  0.00     0.048 A 
ATOM      4  C3  UNL d   1       0.153  -0.208  -1.770  0.00  0.00     0.023 A 
ATOM      5  C4  UNL d   1      -0.831   0.755  -1.996  0.00  0.00     0.048 A 
ATOM      6  C5  UNL d   1      -1.575   1.248  -0.923  0.00  0.00     0.003 A 
ATOM      7  I   UNL d   1       1.263  -0.945  -3.365  0.00  0.00    -0.146 I 
ENDROOT
TORSDOF 0
ENDMDL
