MODEL 1
REMARK minimizedAffinity -0.755179524
REMARK minimizedRMSD -1
REMARK  0 active torsions:
REMARK  status: ('A' for Active; 'I' for Inactive)
ROOT
ATOM      1  C   UNL d   1      -1.578  -0.093   4.058  0.00  0.00     0.023 A 
ATOM      2  C1  UNL d   1      -1.193   1.176   3.626  0.00  0.00     0.003 A 
ATOM      3  C2  UNL d   1      -0.865   1.390   2.286  0.00  0.00     0.048 A 
ATOM      4  C3  UNL d   1      -0.925   0.329   1.382  0.00  0.00     0.023 A 
ATOM      5  C4  UNL d   1      -1.310  -0.943   1.809  0.00  0.00     0.048 A 
ATOM      6  C5  UNL d   1      -1.636  -1.151   3.150  0.00  0.00     0.003 A 
ATOM      7  I   UNL d   1      -0.438   0.645  -0.614  0.00  0.00    -0.146 I 
ENDROOT
TORSDOF 0
ENDMDL
