MODEL 1
REMARK minimizedAffinity -4.32402277
REMARK minimizedRMSD -1
REMARK  0 active torsions:
REMARK  status: ('A' for Active; 'I' for Inactive)
ROOT
ATOM      1  C   UNL d   1      -2.263  -0.066   3.042  0.00  0.00     0.023 A 
ATOM      2  C1  UNL d   1      -0.904  -0.370   2.965  0.00  0.00     0.003 A 
ATOM      3  C2  UNL d   1      -0.274  -0.452   1.721  0.00  0.00     0.048 A 
ATOM      4  C3  UNL d   1      -1.010  -0.228   0.558  0.00  0.00     0.023 A 
ATOM      5  C4  UNL d   1      -2.370   0.077   0.630  0.00  0.00     0.048 A 
ATOM      6  C5  UNL d   1      -2.995   0.157   1.876  0.00  0.00     0.003 A 
ATOM      7  I   UNL d   1      -0.075  -0.350  -1.294  0.00  0.00    -0.146 I 
ENDROOT
TORSDOF 0
ENDMDL
