MODEL 1
REMARK minimizedAffinity -2.40648794
REMARK minimizedRMSD -1
REMARK  0 active torsions:
REMARK  status: ('A' for Active; 'I' for Inactive)
ROOT
ATOM      1  C   UNL d   1       1.249  -0.921  -2.834  0.00  0.00     0.023 A 
ATOM      2  C1  UNL d   1       2.204  -1.822  -2.364  0.00  0.00     0.003 A 
ATOM      3  C2  UNL d   1       1.808  -3.068  -1.872  0.00  0.00     0.048 A 
ATOM      4  C3  UNL d   1       0.456  -3.406  -1.855  0.00  0.00     0.023 A 
ATOM      5  C4  UNL d   1      -0.503  -2.508  -2.326  0.00  0.00     0.048 A 
ATOM      6  C5  UNL d   1      -0.103  -1.263  -2.816  0.00  0.00     0.003 A 
ATOM      7  I   UNL d   1      -0.136  -5.260  -1.124  0.00  0.00    -0.146 I 
ENDROOT
TORSDOF 0
ENDMDL
