MODEL 1
REMARK minimizedAffinity -4.05891228
REMARK minimizedRMSD -1
REMARK  0 active torsions:
REMARK  status: ('A' for Active; 'I' for Inactive)
ROOT
ATOM      1  C   UNL d   1      -0.488   0.325   3.032  0.00  0.00     0.023 A 
ATOM      2  C1  UNL d   1       0.811   0.557   2.578  0.00  0.00     0.003 A 
ATOM      3  C2  UNL d   1       1.104   0.462   1.217  0.00  0.00     0.048 A 
ATOM      4  C3  UNL d   1       0.093   0.134   0.313  0.00  0.00     0.023 A 
ATOM      5  C4  UNL d   1      -1.208  -0.098   0.762  0.00  0.00     0.048 A 
ATOM      6  C5  UNL d   1      -1.496  -0.002   2.125  0.00  0.00     0.003 A 
ATOM      7  I   UNL d   1       0.527  -0.008  -1.714  0.00  0.00    -0.146 I 
ENDROOT
TORSDOF 0
ENDMDL
