MODEL 1
REMARK minimizedAffinity 4.75381851
REMARK minimizedRMSD -1
REMARK  0 active torsions:
REMARK  status: ('A' for Active; 'I' for Inactive)
ROOT
ATOM      1  C   UNL d   1       2.108  -2.035  -0.159  0.00  0.00     0.020 A 
ATOM      2  C1  UNL d   1       1.783  -0.788  -0.691  0.00  0.00     0.020 A 
ATOM      3  C2  UNL d   1       2.493   0.347  -0.295  0.00  0.00     0.034 A 
ATOM      4  C3  UNL d   1       3.532   0.238   0.636  0.00  0.00     0.017 A 
ATOM      5  C4  UNL d   1       3.858  -1.014   1.169  0.00  0.00     0.017 A 
ATOM      6  C5  UNL d   1       3.144  -2.148   0.769  0.00  0.00     0.034 A 
ATOM      7 Cl   UNL d   1       5.128  -1.228   2.322  0.00  0.00    -0.070 Cl
ATOM      8 Cl1  UNL d   1       4.369   1.683   1.080  0.00  0.00    -0.070 Cl
ENDROOT
TORSDOF 0
ENDMDL
