MODEL 1
REMARK minimizedAffinity 5.20848989
REMARK minimizedRMSD -1
REMARK  0 active torsions:
REMARK  status: ('A' for Active; 'I' for Inactive)
ROOT
ATOM      1  C   UNL d   1       5.395   3.369  -0.460  0.00  0.00     0.020 A 
ATOM      2  C1  UNL d   1       5.934   2.272  -1.131  0.00  0.00     0.020 A 
ATOM      3  C2  UNL d   1       5.197   1.092  -1.245  0.00  0.00     0.034 A 
ATOM      4  C3  UNL d   1       3.916   1.006  -0.688  0.00  0.00     0.017 A 
ATOM      5  C4  UNL d   1       3.375   2.107  -0.015  0.00  0.00     0.017 A 
ATOM      6  C5  UNL d   1       4.118   3.286   0.097  0.00  0.00     0.034 A 
ATOM      7 Cl   UNL d   1       1.801   2.076   0.698  0.00  0.00    -0.070 Cl
ATOM      8 Cl1  UNL d   1       3.060  -0.485  -0.869  0.00  0.00    -0.070 Cl
ENDROOT
TORSDOF 0
ENDMDL
