MODEL 1
REMARK minimizedAffinity 2.66196775
REMARK minimizedRMSD -1
REMARK  0 active torsions:
REMARK  status: ('A' for Active; 'I' for Inactive)
ROOT
ATOM      1  C   UNL d   1       0.461   1.924   2.867  0.00  0.00     0.020 A 
ATOM      2  C1  UNL d   1       0.364   1.581   1.519  0.00  0.00     0.020 A 
ATOM      3  C2  UNL d   1       1.455   1.776   0.669  0.00  0.00     0.034 A 
ATOM      4  C3  UNL d   1       2.647   2.315   1.166  0.00  0.00     0.017 A 
ATOM      5  C4  UNL d   1       2.743   2.659   2.519  0.00  0.00     0.017 A 
ATOM      6  C5  UNL d   1       1.648   2.462   3.366  0.00  0.00     0.034 A 
ATOM      7 Cl   UNL d   1       4.181   3.330   3.206  0.00  0.00    -0.070 Cl
ATOM      8 Cl1  UNL d   1       3.956   2.529   0.058  0.00  0.00    -0.070 Cl
ENDROOT
TORSDOF 0
ENDMDL
