MODEL 1
REMARK minimizedAffinity 2.57465315
REMARK minimizedRMSD -1
REMARK  0 active torsions:
REMARK  status: ('A' for Active; 'I' for Inactive)
ROOT
ATOM      1  C   UNL d   1      -0.523  -2.238  -0.436  0.00  0.00     0.020 A 
ATOM      2  C1  UNL d   1       0.577  -3.020  -0.784  0.00  0.00     0.020 A 
ATOM      3  C2  UNL d   1       1.825  -2.423  -0.978  0.00  0.00     0.034 A 
ATOM      4  C3  UNL d   1       1.975  -1.040  -0.823  0.00  0.00     0.017 A 
ATOM      5  C4  UNL d   1       0.869  -0.256  -0.473  0.00  0.00     0.017 A 
ATOM      6  C5  UNL d   1      -0.377  -0.859  -0.281  0.00  0.00     0.034 A 
ATOM      7 Cl   UNL d   1       0.976   1.456  -0.264  0.00  0.00    -0.070 Cl
ATOM      8 Cl1  UNL d   1       3.546  -0.369  -1.078  0.00  0.00    -0.070 Cl
ENDROOT
TORSDOF 0
ENDMDL
