MODEL 1
REMARK minimizedAffinity -3.20914626
REMARK minimizedRMSD -1
REMARK  0 active torsions:
REMARK  status: ('A' for Active; 'I' for Inactive)
ROOT
ATOM      1  C   UNL d   1       3.914  -1.212  -1.068  0.00  0.00     0.020 A 
ATOM      2  C1  UNL d   1       4.034   0.170  -0.927  0.00  0.00     0.020 A 
ATOM      3  C2  UNL d   1       2.908   0.942  -0.631  0.00  0.00     0.034 A 
ATOM      4  C3  UNL d   1       1.658   0.332  -0.475  0.00  0.00     0.017 A 
ATOM      5  C4  UNL d   1       1.539  -1.055  -0.617  0.00  0.00     0.017 A 
ATOM      6  C5  UNL d   1       2.670  -1.823  -0.913  0.00  0.00     0.034 A 
ATOM      7 Cl   UNL d   1       0.030  -1.879  -0.439  0.00  0.00    -0.070 Cl
ATOM      8 Cl1  UNL d   1       0.309   1.348  -0.109  0.00  0.00    -0.070 Cl
ENDROOT
TORSDOF 0
ENDMDL
