MODEL 1
REMARK minimizedAffinity 1.17933547
REMARK minimizedRMSD -1
REMARK  0 active torsions:
REMARK  status: ('A' for Active; 'I' for Inactive)
ROOT
ATOM      1  C   UNL d   1      -1.115  -2.355  -1.060  0.00  0.00     0.020 A 
ATOM      2  C1  UNL d   1      -1.628  -1.070  -0.894  0.00  0.00     0.020 A 
ATOM      3  C2  UNL d   1      -0.769  -0.006  -0.610  0.00  0.00     0.034 A 
ATOM      4  C3  UNL d   1       0.608  -0.226  -0.491  0.00  0.00     0.017 A 
ATOM      5  C4  UNL d   1       1.122  -1.517  -0.657  0.00  0.00     0.017 A 
ATOM      6  C5  UNL d   1       0.257  -2.578  -0.942  0.00  0.00     0.034 A 
ATOM      7 Cl   UNL d   1       2.810  -1.867  -0.525  0.00  0.00    -0.070 Cl
ATOM      8 Cl1  UNL d   1       1.611   1.135  -0.138  0.00  0.00    -0.070 Cl
ENDROOT
TORSDOF 0
ENDMDL
