MODEL 1
REMARK minimizedAffinity 5.57155991
REMARK minimizedRMSD -1
REMARK  0 active torsions:
REMARK  status: ('A' for Active; 'I' for Inactive)
ROOT
ATOM      1  C   UNL d   1       0.541   1.412  -0.055  0.00  0.00     0.020 A 
ATOM      2  C1  UNL d   1      -0.746   1.265  -0.570  0.00  0.00     0.020 A 
ATOM      3  C2  UNL d   1      -1.169   0.024  -1.050  0.00  0.00     0.034 A 
ATOM      4  C3  UNL d   1      -0.303  -1.075  -1.017  0.00  0.00     0.017 A 
ATOM      5  C4  UNL d   1       0.989  -0.927  -0.500  0.00  0.00     0.017 A 
ATOM      6  C5  UNL d   1       1.407   0.318  -0.020  0.00  0.00     0.034 A 
ATOM      7 Cl   UNL d   1       2.114  -2.237  -0.426  0.00  0.00    -0.070 Cl
ATOM      8 Cl1  UNL d   1      -0.892  -2.580  -1.628  0.00  0.00    -0.070 Cl
ENDROOT
TORSDOF 0
ENDMDL
