MODEL 1
REMARK minimizedAffinity 14.4920721
REMARK minimizedRMSD -1
REMARK  2 active torsions:
REMARK  status: ('A' for Active; 'I' for Inactive)
REMARK    1  A    between atoms: C1_2  and  C2_3 
REMARK    2  A    between atoms: C2_3  and  C3_4 
ROOT
ATOM      1  C3  UNL d   1      -2.706   3.878  -3.130  0.00  0.00    -0.075 A 
ATOM      2  C4  UNL d   1      -3.369   2.772  -2.578  0.00  0.00     0.002 A 
ATOM      3  C5  UNL d   1      -4.229   2.932  -1.492  0.00  0.00     0.002 A 
ATOM      4  C6  UNL d   1      -4.430   4.194  -0.938  0.00  0.00    -0.004 A 
ATOM      5  C7  UNL d   1      -3.764   5.297  -1.467  0.00  0.00     0.002 A 
ATOM      6  C8  UNL d   1      -2.905   5.141  -2.557  0.00  0.00     0.002 A 
ENDROOT
BRANCH   1   7
ATOM      7  C2  UNL d   1      -1.796   3.717  -4.324  0.00  0.00     0.056 C 
BRANCH   7   8
ATOM      8  C1  UNL d   1      -2.346   4.332  -5.615  0.00  0.00     0.007 C 
ATOM      9  C   UNL d   1      -2.121   5.836  -5.706  0.00  0.00     0.009 C 
ENDBRANCH   7   8
ENDBRANCH   1   7
TORSDOF 2
ENDMDL
