MODEL 1
REMARK minimizedAffinity 8.97468567
REMARK minimizedRMSD -1
REMARK  2 active torsions:
REMARK  status: ('A' for Active; 'I' for Inactive)
REMARK    1  A    between atoms: C1_2  and  C2_3 
REMARK    2  A    between atoms: C2_3  and  C3_4 
ROOT
ATOM      1  C3  UNL d   1      -2.635   4.908  -2.881  0.00  0.00    -0.075 A 
ATOM      2  C4  UNL d   1      -2.444   3.526  -3.020  0.00  0.00     0.002 A 
ATOM      3  C5  UNL d   1      -3.232   2.626  -2.301  0.00  0.00     0.002 A 
ATOM      4  C6  UNL d   1      -4.211   3.096  -1.428  0.00  0.00    -0.004 A 
ATOM      5  C7  UNL d   1      -4.397   4.468  -1.269  0.00  0.00     0.002 A 
ATOM      6  C8  UNL d   1      -3.614   5.370  -1.991  0.00  0.00     0.002 A 
ENDROOT
BRANCH   1   7
ATOM      7  C2  UNL d   1      -1.806   5.886  -3.679  0.00  0.00     0.056 C 
BRANCH   7   8
ATOM      8  C1  UNL d   1      -2.095   5.866  -5.184  0.00  0.00     0.007 C 
ATOM      9  C   UNL d   1      -2.195   4.459  -5.757  0.00  0.00     0.009 C 
ENDBRANCH   7   8
ENDBRANCH   1   7
TORSDOF 2
ENDMDL
