MODEL 1
REMARK minimizedAffinity 5.33088446
REMARK minimizedRMSD -1
REMARK  2 active torsions:
REMARK  status: ('A' for Active; 'I' for Inactive)
REMARK    1  A    between atoms: C1_2  and  C2_3 
REMARK    2  A    between atoms: C2_3  and  C3_4 
ROOT
ATOM      1  C3  UNL d   1       0.115  -2.177   2.995  0.00  0.00    -0.075 A 
ATOM      2  C4  UNL d   1      -0.875  -3.155   3.167  0.00  0.00     0.002 A 
ATOM      3  C5  UNL d   1      -1.863  -2.999   4.140  0.00  0.00     0.002 A 
ATOM      4  C6  UNL d   1      -1.868  -1.871   4.958  0.00  0.00    -0.004 A 
ATOM      5  C7  UNL d   1      -0.880  -0.901   4.806  0.00  0.00     0.002 A 
ATOM      6  C8  UNL d   1       0.107  -1.052   3.831  0.00  0.00     0.002 A 
ENDROOT
BRANCH   1   7
ATOM      7  C2  UNL d   1       1.169  -2.325   1.924  0.00  0.00     0.056 C 
BRANCH   7   8
ATOM      8  C1  UNL d   1       1.818  -1.003   1.500  0.00  0.00     0.007 C 
ATOM      9  C   UNL d   1       3.156  -1.189   0.798  0.00  0.00     0.009 C 
ENDBRANCH   7   8
ENDBRANCH   1   7
TORSDOF 2
ENDMDL
