MODEL 1
REMARK minimizedAffinity 6.38727188
REMARK minimizedRMSD -1
REMARK  2 active torsions:
REMARK  status: ('A' for Active; 'I' for Inactive)
REMARK    1  A    between atoms: C1_2  and  C2_3 
REMARK    2  A    between atoms: C2_3  and  C3_4 
ROOT
ATOM      1  C3  UNL d   1      -2.750   4.089  -3.496  0.00  0.00    -0.075 A 
ATOM      2  C4  UNL d   1      -2.360   5.432  -3.594  0.00  0.00     0.002 A 
ATOM      3  C5  UNL d   1      -2.073   5.998  -4.837  0.00  0.00     0.002 A 
ATOM      4  C6  UNL d   1      -2.162   5.227  -5.993  0.00  0.00    -0.004 A 
ATOM      5  C7  UNL d   1      -2.532   3.886  -5.906  0.00  0.00     0.002 A 
ATOM      6  C8  UNL d   1      -2.824   3.319  -4.664  0.00  0.00     0.002 A 
ENDROOT
BRANCH   1   7
ATOM      7  C2  UNL d   1      -3.090   3.479  -2.157  0.00  0.00     0.056 C 
BRANCH   7   8
ATOM      8  C1  UNL d   1      -4.590   3.455  -1.846  0.00  0.00     0.007 C 
ATOM      9  C   UNL d   1      -5.348   2.386  -2.622  0.00  0.00     0.009 C 
ENDBRANCH   7   8
ENDBRANCH   1   7
TORSDOF 2
ENDMDL
