MODEL 1
REMARK minimizedAffinity 6.82887125
REMARK minimizedRMSD -1
REMARK  2 active torsions:
REMARK  status: ('A' for Active; 'I' for Inactive)
REMARK    1  A    between atoms: C1_2  and  C2_3 
REMARK    2  A    between atoms: C2_3  and  C3_4 
ROOT
ATOM      1  C3  UNL d   1      -0.508  -2.689   2.554  0.00  0.00    -0.075 A 
ATOM      2  C4  UNL d   1       0.599  -2.522   1.710  0.00  0.00     0.002 A 
ATOM      3  C5  UNL d   1       1.426  -1.406   1.840  0.00  0.00     0.002 A 
ATOM      4  C6  UNL d   1       1.152  -0.440   2.805  0.00  0.00    -0.004 A 
ATOM      5  C7  UNL d   1       0.044  -0.587   3.638  0.00  0.00     0.002 A 
ATOM      6  C8  UNL d   1      -0.782  -1.705   3.513  0.00  0.00     0.002 A 
ENDROOT
BRANCH   1   7
ATOM      7  C2  UNL d   1      -1.390  -3.910   2.439  0.00  0.00     0.056 C 
BRANCH   7   8
ATOM      8  C1  UNL d   1      -2.581  -3.732   1.491  0.00  0.00     0.007 C 
ATOM      9  C   UNL d   1      -2.386  -4.421   0.147  0.00  0.00     0.009 C 
ENDBRANCH   7   8
ENDBRANCH   1   7
TORSDOF 2
ENDMDL
