MODEL 1
REMARK minimizedAffinity 8.838027
REMARK minimizedRMSD -1
REMARK  2 active torsions:
REMARK  status: ('A' for Active; 'I' for Inactive)
REMARK    1  A    between atoms: C1_2  and  C2_3 
REMARK    2  A    between atoms: C2_3  and  C3_4 
ROOT
ATOM      1  C3  UNL d   1       0.311  -1.888   2.389  0.00  0.00    -0.075 A 
ATOM      2  C4  UNL d   1      -0.612  -2.935   2.247  0.00  0.00     0.002 A 
ATOM      3  C5  UNL d   1      -1.748  -2.993   3.055  0.00  0.00     0.002 A 
ATOM      4  C6  UNL d   1      -1.970  -2.013   4.020  0.00  0.00    -0.004 A 
ATOM      5  C7  UNL d   1      -1.052  -0.977   4.181  0.00  0.00     0.002 A 
ATOM      6  C8  UNL d   1       0.083  -0.915   3.370  0.00  0.00     0.002 A 
ENDROOT
BRANCH   1   7
ATOM      7  C2  UNL d   1       1.527  -1.804   1.497  0.00  0.00     0.056 C 
BRANCH   7   8
ATOM      8  C1  UNL d   1       2.428  -0.598   1.784  0.00  0.00     0.007 C 
ATOM      9  C   UNL d   1       3.613  -0.495   0.833  0.00  0.00     0.009 C 
ENDBRANCH   7   8
ENDBRANCH   1   7
TORSDOF 2
ENDMDL
