MODEL 1
REMARK minimizedAffinity 8.43671227
REMARK minimizedRMSD -1
REMARK  2 active torsions:
REMARK  status: ('A' for Active; 'I' for Inactive)
REMARK    1  A    between atoms: C1_2  and  C2_3 
REMARK    2  A    between atoms: C2_3  and  C3_4 
ROOT
ATOM      1  C3  UNL d   1      -2.447   3.454  -2.368  0.00  0.00    -0.075 A 
ATOM      2  C4  UNL d   1      -2.069   4.755  -2.730  0.00  0.00     0.002 A 
ATOM      3  C5  UNL d   1      -2.828   5.853  -2.324  0.00  0.00     0.002 A 
ATOM      4  C6  UNL d   1      -3.978   5.664  -1.562  0.00  0.00    -0.004 A 
ATOM      5  C7  UNL d   1      -4.373   4.375  -1.210  0.00  0.00     0.002 A 
ATOM      6  C8  UNL d   1      -3.613   3.275  -1.611  0.00  0.00     0.002 A 
ENDROOT
BRANCH   1   7
ATOM      7  C2  UNL d   1      -1.614   2.264  -2.779  0.00  0.00     0.056 C 
BRANCH   7   8
ATOM      8  C1  UNL d   1      -0.135   2.375  -2.393  0.00  0.00     0.007 C 
ATOM      9  C   UNL d   1       0.095   2.369  -0.888  0.00  0.00     0.009 C 
ENDBRANCH   7   8
ENDBRANCH   1   7
TORSDOF 2
ENDMDL
