MODEL 1
REMARK minimizedAffinity 13.5962343
REMARK minimizedRMSD -1
REMARK  2 active torsions:
REMARK  status: ('A' for Active; 'I' for Inactive)
REMARK    1  A    between atoms: C1_2  and  C2_3 
REMARK    2  A    between atoms: C2_3  and  C3_4 
ROOT
ATOM      1  C3  UNL d   1      -2.218   4.879  -3.139  0.00  0.00    -0.075 A 
ATOM      2  C4  UNL d   1      -1.885   3.533  -3.347  0.00  0.00     0.002 A 
ATOM      3  C5  UNL d   1      -2.561   2.522  -2.664  0.00  0.00     0.002 A 
ATOM      4  C6  UNL d   1      -3.569   2.843  -1.757  0.00  0.00    -0.004 A 
ATOM      5  C7  UNL d   1      -3.897   4.178  -1.530  0.00  0.00     0.002 A 
ATOM      6  C8  UNL d   1      -3.225   5.191  -2.216  0.00  0.00     0.002 A 
ENDROOT
BRANCH   1   7
ATOM      7  C2  UNL d   1      -1.511   5.976  -3.898  0.00  0.00     0.056 C 
BRANCH   7   8
ATOM      8  C1  UNL d   1      -1.824   5.999  -5.397  0.00  0.00     0.007 C 
ATOM      9  C   UNL d   1      -2.165   4.626  -5.961  0.00  0.00     0.009 C 
ENDBRANCH   7   8
ENDBRANCH   1   7
TORSDOF 2
ENDMDL
