MODEL 1
REMARK minimizedAffinity 10.696126
REMARK minimizedRMSD -1
REMARK  2 active torsions:
REMARK  status: ('A' for Active; 'I' for Inactive)
REMARK    1  A    between atoms: C1_2  and  C2_3 
REMARK    2  A    between atoms: C2_3  and  C3_4 
ROOT
ATOM      1  C3  UNL d   1       0.413  -1.529   2.518  0.00  0.00    -0.075 A 
ATOM      2  C4  UNL d   1      -0.400  -2.668   2.427  0.00  0.00     0.002 A 
ATOM      3  C5  UNL d   1      -1.574  -2.763   3.175  0.00  0.00     0.002 A 
ATOM      4  C6  UNL d   1      -1.946  -1.726   4.028  0.00  0.00    -0.004 A 
ATOM      5  C7  UNL d   1      -1.138  -0.597   4.139  0.00  0.00     0.002 A 
ATOM      6  C8  UNL d   1       0.036  -0.497   3.389  0.00  0.00     0.002 A 
ENDROOT
BRANCH   1   7
ATOM      7  C2  UNL d   1       1.669  -1.407   1.690  0.00  0.00     0.056 C 
BRANCH   7   8
ATOM      8  C1  UNL d   1       2.028   0.032   1.309  0.00  0.00     0.007 C 
ATOM      9  C   UNL d   1       3.498   0.364   1.532  0.00  0.00     0.009 C 
ENDBRANCH   7   8
ENDBRANCH   1   7
TORSDOF 2
ENDMDL
