MODEL 1
REMARK minimizedAffinity 9.02598095
REMARK minimizedRMSD -1
REMARK  2 active torsions:
REMARK  status: ('A' for Active; 'I' for Inactive)
REMARK    1  A    between atoms: C1_2  and  C2_3 
REMARK    2  A    between atoms: C2_3  and  C3_4 
ROOT
ATOM      1  C3  UNL d   1       0.189  -2.010   2.577  0.00  0.00    -0.075 A 
ATOM      2  C4  UNL d   1      -0.696  -3.098   2.553  0.00  0.00     0.002 A 
ATOM      3  C5  UNL d   1      -1.884  -3.061   3.283  0.00  0.00     0.002 A 
ATOM      4  C6  UNL d   1      -2.199  -1.942   4.051  0.00  0.00    -0.004 A 
ATOM      5  C7  UNL d   1      -1.320  -0.862   4.095  0.00  0.00     0.002 A 
ATOM      6  C8  UNL d   1      -0.132  -0.895   3.362  0.00  0.00     0.002 A 
ENDROOT
BRANCH   1   7
ATOM      7  C2  UNL d   1       1.463  -2.032   1.766  0.00  0.00     0.056 C 
BRANCH   7   8
ATOM      8  C1  UNL d   1       2.048  -0.644   1.487  0.00  0.00     0.007 C 
ATOM      9  C   UNL d   1       3.529  -0.677   1.132  0.00  0.00     0.009 C 
ENDBRANCH   7   8
ENDBRANCH   1   7
TORSDOF 2
ENDMDL
