MODEL 1
REMARK minimizedAffinity 4.57884741
REMARK minimizedRMSD -1
REMARK  0 active torsions:
REMARK  status: ('A' for Active; 'I' for Inactive)
ROOT
ATOM      1  C   UNL d   1      -0.161   0.128   2.995  0.00  0.00     0.172 C 
ATOM      2  N   UNL d   1      -1.548   0.218   2.604  0.00  0.00    -0.070 N 
ATOM      3  C1  UNL d   1      -2.620   0.191   3.455  0.00  0.00    -0.004 A 
ATOM      4  C2  UNL d   1      -3.765   0.301   2.695  0.00  0.00    -0.047 A 
ATOM      5  C3  UNL d   1      -3.366   0.396   1.341  0.00  0.00    -0.047 A 
ATOM      6  C4  UNL d   1      -1.989   0.342   1.313  0.00  0.00    -0.004 A 
ENDROOT
TORSDOF 0
ENDMDL
