MODEL 1
REMARK minimizedAffinity 2.3704052
REMARK minimizedRMSD -1
REMARK  0 active torsions:
REMARK  status: ('A' for Active; 'I' for Inactive)
ROOT
ATOM      1  C   UNL d   1      -1.506  -4.415  -5.999  0.00  0.00     0.172 C 
ATOM      2  N   UNL d   1      -2.342  -3.238  -5.997  0.00  0.00    -0.070 N 
ATOM      3  C1  UNL d   1      -1.898  -1.943  -6.000  0.00  0.00    -0.004 A 
ATOM      4  C2  UNL d   1      -3.002  -1.118  -5.997  0.00  0.00    -0.047 A 
ATOM      5  C3  UNL d   1      -4.149  -1.946  -5.991  0.00  0.00    -0.047 A 
ATOM      6  C4  UNL d   1      -3.712  -3.254  -5.991  0.00  0.00    -0.004 A 
ENDROOT
TORSDOF 0
ENDMDL
