MODEL 1
REMARK minimizedAffinity 1.48472393
REMARK minimizedRMSD -1
REMARK  0 active torsions:
REMARK  status: ('A' for Active; 'I' for Inactive)
ROOT
ATOM      1  C   UNL d   1      -5.130  -4.923  -5.998  0.00  0.00     0.172 C 
ATOM      2  N   UNL d   1      -4.957  -3.489  -5.997  0.00  0.00    -0.070 N 
ATOM      3  C1  UNL d   1      -3.757  -2.830  -5.999  0.00  0.00    -0.004 A 
ATOM      4  C2  UNL d   1      -4.019  -1.477  -5.997  0.00  0.00    -0.047 A 
ATOM      5  C3  UNL d   1      -5.425  -1.317  -5.994  0.00  0.00    -0.047 A 
ATOM      6  C4  UNL d   1      -5.981  -2.579  -5.994  0.00  0.00    -0.004 A 
ENDROOT
TORSDOF 0
ENDMDL
