MODEL 1
REMARK minimizedAffinity -3.32750082
REMARK minimizedRMSD -1
REMARK  0 active torsions:
REMARK  status: ('A' for Active; 'I' for Inactive)
ROOT
ATOM      1  C   UNL d   1      -0.028   0.880   3.321  0.00  0.00     0.172 C 
ATOM      2  N   UNL d   1      -1.123   0.458   2.480  0.00  0.00    -0.070 N 
ATOM      3  C1  UNL d   1      -1.006  -0.245   1.311  0.00  0.00    -0.004 A 
ATOM      4  C2  UNL d   1      -2.275  -0.451   0.814  0.00  0.00    -0.047 A 
ATOM      5  C3  UNL d   1      -3.186   0.150   1.716  0.00  0.00    -0.047 A 
ATOM      6  C4  UNL d   1      -2.446   0.705   2.738  0.00  0.00    -0.004 A 
ENDROOT
TORSDOF 0
ENDMDL
