MODEL 1
REMARK minimizedAffinity 5.2108345
REMARK minimizedRMSD -1
REMARK  0 active torsions:
REMARK  status: ('A' for Active; 'I' for Inactive)
ROOT
ATOM      1  C   UNL d   1      -4.455  -1.200   0.719  0.00  0.00     0.172 C 
ATOM      2  N   UNL d   1      -3.579  -0.235   1.340  0.00  0.00    -0.070 N 
ATOM      3  C1  UNL d   1      -3.969   0.952   1.900  0.00  0.00    -0.004 A 
ATOM      4  C2  UNL d   1      -2.842   1.582   2.383  0.00  0.00    -0.047 A 
ATOM      5  C3  UNL d   1      -1.736   0.745   2.101  0.00  0.00    -0.047 A 
ATOM      6  C4  UNL d   1      -2.221  -0.373   1.455  0.00  0.00    -0.004 A 
ENDROOT
TORSDOF 0
ENDMDL
