MODEL 1
REMARK minimizedAffinity 2.2085743
REMARK minimizedRMSD -1
REMARK  0 active torsions:
REMARK  status: ('A' for Active; 'I' for Inactive)
ROOT
ATOM      1  C   UNL d   1      -1.506  -3.089  -5.960  0.00  0.00     0.172 C 
ATOM      2  N   UNL d   1      -2.647  -2.205  -5.975  0.00  0.00    -0.070 N 
ATOM      3  C1  UNL d   1      -2.597  -0.837  -5.982  0.00  0.00    -0.004 A 
ATOM      4  C2  UNL d   1      -3.893  -0.367  -5.997  0.00  0.00    -0.047 A 
ATOM      5  C3  UNL d   1      -4.751  -1.492  -5.998  0.00  0.00    -0.047 A 
ATOM      6  C4  UNL d   1      -3.954  -2.617  -5.984  0.00  0.00    -0.004 A 
ENDROOT
TORSDOF 0
ENDMDL
