MODEL 1
REMARK minimizedAffinity 3.40495014
REMARK minimizedRMSD -1
REMARK  0 active torsions:
REMARK  status: ('A' for Active; 'I' for Inactive)
ROOT
ATOM      1  C   UNL d   1      -4.175  -0.785   0.272  0.00  0.00     0.172 C 
ATOM      2  N   UNL d   1      -3.468   0.360   0.798  0.00  0.00    -0.070 N 
ATOM      3  C1  UNL d   1      -2.193   0.350   1.296  0.00  0.00    -0.004 A 
ATOM      4  C2  UNL d   1      -1.886   1.634   1.694  0.00  0.00    -0.047 A 
ATOM      5  C3  UNL d   1      -3.017   2.442   1.426  0.00  0.00    -0.047 A 
ATOM      6  C4  UNL d   1      -3.981   1.628   0.872  0.00  0.00    -0.004 A 
ENDROOT
TORSDOF 0
ENDMDL
