MODEL 1
REMARK minimizedAffinity -0.356330365
REMARK minimizedRMSD -1
REMARK  0 active torsions:
REMARK  status: ('A' for Active; 'I' for Inactive)
ROOT
ATOM      1  C   UNL d   1      -5.175   1.057   0.510  0.00  0.00     0.172 C 
ATOM      2  N   UNL d   1      -4.153   0.743   1.481  0.00  0.00    -0.070 N 
ATOM      3  C1  UNL d   1      -4.271   0.885   2.838  0.00  0.00    -0.004 A 
ATOM      4  C2  UNL d   1      -3.084   0.479   3.409  0.00  0.00    -0.047 A 
ATOM      5  C3  UNL d   1      -2.222   0.082   2.359  0.00  0.00    -0.047 A 
ATOM      6  C4  UNL d   1      -2.910   0.255   1.176  0.00  0.00    -0.004 A 
ENDROOT
TORSDOF 0
ENDMDL
