MODEL 1
REMARK minimizedAffinity -0.152188867
REMARK minimizedRMSD -1
REMARK  0 active torsions:
REMARK  status: ('A' for Active; 'I' for Inactive)
ROOT
ATOM      1  C   UNL d   1       4.015  -6.000   1.821  0.00  0.00     0.172 C 
ATOM      2  N   UNL d   1       2.688  -5.566   2.188  0.00  0.00    -0.070 N 
ATOM      3  C1  UNL d   1       1.922  -4.667   1.496  0.00  0.00    -0.004 A 
ATOM      4  C2  UNL d   1       0.727  -4.523   2.169  0.00  0.00    -0.047 A 
ATOM      5  C3  UNL d   1       0.778  -5.364   3.306  0.00  0.00    -0.047 A 
ATOM      6  C4  UNL d   1       2.003  -5.998   3.293  0.00  0.00    -0.004 A 
ENDROOT
TORSDOF 0
ENDMDL
