MODEL 1
REMARK minimizedAffinity 1.10398149
REMARK minimizedRMSD -1
REMARK  0 active torsions:
REMARK  status: ('A' for Active; 'I' for Inactive)
ROOT
ATOM      1  C   UNL d   1      -2.257  -0.402  -5.989  0.00  0.00     0.172 C 
ATOM      2  N   UNL d   1      -3.252  -1.449  -5.991  0.00  0.00    -0.070 N 
ATOM      3  C1  UNL d   1      -4.608  -1.261  -5.998  0.00  0.00    -0.004 A 
ATOM      4  C2  UNL d   1      -5.206  -2.502  -5.999  0.00  0.00    -0.047 A 
ATOM      5  C3  UNL d   1      -4.174  -3.470  -5.992  0.00  0.00    -0.047 A 
ATOM      6  C4  UNL d   1      -2.974  -2.790  -5.988  0.00  0.00    -0.004 A 
ENDROOT
TORSDOF 0
ENDMDL
