MODEL 1
REMARK minimizedAffinity -1.74757707
REMARK minimizedRMSD -1
REMARK  0 active torsions:
REMARK  status: ('A' for Active; 'I' for Inactive)
ROOT
ATOM      1  C   UNL d   1      -2.880  -1.301  -6.000  0.00  0.00     0.172 C 
ATOM      2  N   UNL d   1      -3.758  -2.447  -6.000  0.00  0.00    -0.070 N 
ATOM      3  C1  UNL d   1      -5.127  -2.404  -5.999  0.00  0.00    -0.004 A 
ATOM      4  C2  UNL d   1      -5.590  -3.702  -6.000  0.00  0.00    -0.047 A 
ATOM      5  C3  UNL d   1      -4.460  -4.555  -6.000  0.00  0.00    -0.047 A 
ATOM      6  C4  UNL d   1      -3.339  -3.752  -6.000  0.00  0.00    -0.004 A 
ENDROOT
TORSDOF 0
ENDMDL
