MODEL 1
REMARK minimizedAffinity -0.878468871
REMARK minimizedRMSD -1
REMARK  0 active torsions:
REMARK  status: ('A' for Active; 'I' for Inactive)
ROOT
ATOM      1  C   UNL d   1      -4.618   1.016   4.581  0.00  0.00     0.172 C 
ATOM      2  N   UNL d   1      -3.725   0.978   3.447  0.00  0.00    -0.070 N 
ATOM      3  C1  UNL d   1      -2.357   0.983   3.506  0.00  0.00    -0.004 A 
ATOM      4  C2  UNL d   1      -1.879   0.939   2.214  0.00  0.00    -0.047 A 
ATOM      5  C3  UNL d   1      -2.998   0.907   1.349  0.00  0.00    -0.047 A 
ATOM      6  C4  UNL d   1      -4.128   0.932   2.138  0.00  0.00    -0.004 A 
ENDROOT
TORSDOF 0
ENDMDL
