MODEL 1
REMARK minimizedAffinity 3.83211875
REMARK minimizedRMSD -1
REMARK  0 active torsions:
REMARK  status: ('A' for Active; 'I' for Inactive)
ROOT
ATOM      1  C   UNL d   1      -2.347  -1.200  -5.996  0.00  0.00     0.172 C 
ATOM      2  N   UNL d   1      -3.564  -1.977  -5.995  0.00  0.00    -0.070 N 
ATOM      3  C1  UNL d   1      -4.836  -1.468  -5.987  0.00  0.00    -0.004 A 
ATOM      4  C2  UNL d   1      -5.715  -2.530  -5.989  0.00  0.00    -0.047 A 
ATOM      5  C3  UNL d   1      -4.945  -3.717  -5.997  0.00  0.00    -0.047 A 
ATOM      6  C4  UNL d   1      -3.617  -3.346  -6.000  0.00  0.00    -0.004 A 
ENDROOT
TORSDOF 0
ENDMDL
