MODEL 1
REMARK minimizedAffinity 3.71028852
REMARK minimizedRMSD -1
REMARK  0 active torsions:
REMARK  status: ('A' for Active; 'I' for Inactive)
ROOT
ATOM      1  C   UNL d   1       3.780   0.267  -5.609  0.00  0.00     0.172 C 
ATOM      2  N   UNL d   1       2.719   0.107  -4.642  0.00  0.00    -0.070 N 
ATOM      3  C1  UNL d   1       2.783   0.463  -3.322  0.00  0.00    -0.004 A 
ATOM      4  C2  UNL d   1       1.572   0.151  -2.741  0.00  0.00    -0.047 A 
ATOM      5  C3  UNL d   1       0.753  -0.413  -3.748  0.00  0.00    -0.047 A 
ATOM      6  C4  UNL d   1       1.488  -0.428  -4.915  0.00  0.00    -0.004 A 
ENDROOT
TORSDOF 0
ENDMDL
