MODEL 1
REMARK minimizedAffinity -1.85186636
REMARK minimizedRMSD -1
REMARK  0 active torsions:
REMARK  status: ('A' for Active; 'I' for Inactive)
ROOT
ATOM      1  C   UNL d   1      -5.830  -3.001  -5.998  0.00  0.00     0.172 C 
ATOM      2  N   UNL d   1      -4.470  -2.515  -5.997  0.00  0.00    -0.070 N 
ATOM      3  C1  UNL d   1      -3.344  -3.294  -5.999  0.00  0.00    -0.004 A 
ATOM      4  C2  UNL d   1      -2.250  -2.456  -5.998  0.00  0.00    -0.047 A 
ATOM      5  C3  UNL d   1      -2.736  -1.127  -5.996  0.00  0.00    -0.047 A 
ATOM      6  C4  UNL d   1      -4.113  -1.193  -5.995  0.00  0.00    -0.004 A 
ENDROOT
TORSDOF 0
ENDMDL
