MODEL 1
REMARK minimizedAffinity 3.71964908
REMARK minimizedRMSD -1
REMARK  0 active torsions:
REMARK  status: ('A' for Active; 'I' for Inactive)
ROOT
ATOM      1  C   UNL d   1       5.194  -2.528   2.274  0.00  0.00     0.172 C 
ATOM      2  N   UNL d   1       5.066  -3.939   2.552  0.00  0.00    -0.070 N 
ATOM      3  C1  UNL d   1       6.000  -4.717   3.182  0.00  0.00    -0.004 A 
ATOM      4  C2  UNL d   1       5.502  -6.000   3.254  0.00  0.00    -0.047 A 
ATOM      5  C3  UNL d   1       4.225  -5.994   2.644  0.00  0.00    -0.047 A 
ATOM      6  C4  UNL d   1       3.980  -4.705   2.218  0.00  0.00    -0.004 A 
ENDROOT
TORSDOF 0
ENDMDL
