MODEL 1
REMARK minimizedAffinity -2.43281722
REMARK minimizedRMSD -1
REMARK  0 active torsions:
REMARK  status: ('A' for Active; 'I' for Inactive)
ROOT
ATOM      1  C   UNL d   1      -5.371  -3.014  -5.653  0.00  0.00     0.172 C 
ATOM      2  N   UNL d   1      -4.070  -2.400  -5.783  0.00  0.00    -0.070 N 
ATOM      3  C1  UNL d   1      -3.827  -1.055  -5.871  0.00  0.00    -0.004 A 
ATOM      4  C2  UNL d   1      -2.465  -0.879  -5.982  0.00  0.00    -0.047 A 
ATOM      5  C3  UNL d   1      -1.869  -2.162  -5.961  0.00  0.00    -0.047 A 
ATOM      6  C4  UNL d   1      -2.886  -3.085  -5.837  0.00  0.00    -0.004 A 
ENDROOT
TORSDOF 0
ENDMDL
