MODEL 1
REMARK minimizedAffinity -2.41468501
REMARK minimizedRMSD -1
REMARK  1 active torsions:
REMARK  status: ('A' for Active; 'I' for Inactive)
REMARK    1  A    between atoms: C1_2  and  C2_3 
ROOT
ATOM      1  C2  UNL d   1       0.006   2.086   0.134  0.00  0.00    -0.073 A 
ATOM      2  C3  UNL d   1      -0.766   2.039   1.301  0.00  0.00    -0.002 A 
ATOM      3  C4  UNL d   1      -1.017   0.819   1.931  0.00  0.00     0.004 A 
ATOM      4  C5  UNL d   1      -0.495  -0.363   1.407  0.00  0.00    -0.004 A 
ATOM      5  C6  UNL d   1       0.289  -0.335   0.249  0.00  0.00    -0.075 A 
ATOM      6  C7  UNL d   1       0.857  -1.598  -0.329  0.00  0.00     0.076 C 
ATOM      7  C8  UNL d   1       0.535   0.893  -0.380  0.00  0.00     0.001 A 
ENDROOT
BRANCH   1   8
ATOM      8  C1  UNL d   1       0.285   3.401  -0.546  0.00  0.00     0.053 C 
ATOM      9  C   UNL d   1       0.542   4.517   0.454  0.00  0.00     0.018 C 
ENDBRANCH   1   8
TORSDOF 1
ENDMDL
