MODEL 1
REMARK minimizedAffinity -4.16208172
REMARK minimizedRMSD -1
REMARK  1 active torsions:
REMARK  status: ('A' for Active; 'I' for Inactive)
REMARK    1  A    between atoms: C1_2  and  C2_3 
ROOT
ATOM      1  C2  UNL d   1       0.451  -0.012  -0.023  0.00  0.00    -0.073 A 
ATOM      2  C3  UNL d   1      -0.215  -0.343   1.163  0.00  0.00    -0.002 A 
ATOM      3  C4  UNL d   1      -0.825   0.652   1.929  0.00  0.00     0.004 A 
ATOM      4  C5  UNL d   1      -0.781   1.983   1.515  0.00  0.00    -0.004 A 
ATOM      5  C6  UNL d   1      -0.130   2.331   0.327  0.00  0.00    -0.075 A 
ATOM      6  C7  UNL d   1      -0.072   3.759  -0.130  0.00  0.00     0.076 C 
ATOM      7  C8  UNL d   1       0.482   1.328  -0.435  0.00  0.00     0.001 A 
ENDROOT
BRANCH   1   8
ATOM      8  C1  UNL d   1       1.106  -1.083  -0.856  0.00  0.00     0.053 C 
ATOM      9  C   UNL d   1       0.084  -1.992  -1.521  0.00  0.00     0.018 C 
ENDBRANCH   1   8
TORSDOF 1
ENDMDL
