MODEL 1
REMARK minimizedAffinity -4.15458727
REMARK minimizedRMSD -1
REMARK  1 active torsions:
REMARK  status: ('A' for Active; 'I' for Inactive)
REMARK    1  A    between atoms: C1_2  and  C2_3 
ROOT
ATOM      1  C2  UNL d   1       0.082  -0.457   0.528  0.00  0.00    -0.073 A 
ATOM      2  C3  UNL d   1      -1.201  -0.919   0.214  0.00  0.00    -0.002 A 
ATOM      3  C4  UNL d   1      -1.387  -1.831  -0.825  0.00  0.00     0.004 A 
ATOM      4  C5  UNL d   1      -0.294  -2.297  -1.555  0.00  0.00    -0.004 A 
ATOM      5  C6  UNL d   1       0.998  -1.856  -1.249  0.00  0.00    -0.075 A 
ATOM      6  C7  UNL d   1       2.185  -2.345  -2.026  0.00  0.00     0.076 C 
ATOM      7  C8  UNL d   1       1.177  -0.938  -0.206  0.00  0.00     0.001 A 
ENDROOT
BRANCH   1   8
ATOM      8  C1  UNL d   1       0.289   0.524   1.653  0.00  0.00     0.053 C 
ATOM      9  C   UNL d   1      -0.951   1.365   1.911  0.00  0.00     0.018 C 
ENDBRANCH   1   8
TORSDOF 1
ENDMDL
