MODEL 1
REMARK minimizedAffinity -3.50211859
REMARK minimizedRMSD -1
REMARK  1 active torsions:
REMARK  status: ('A' for Active; 'I' for Inactive)
REMARK    1  A    between atoms: C1_2  and  C2_3 
ROOT
ATOM      1  C2  UNL d   1      -0.431  -0.980  -0.056  0.00  0.00    -0.073 A 
ATOM      2  C3  UNL d   1       0.625  -0.067   0.041  0.00  0.00    -0.002 A 
ATOM      3  C4  UNL d   1       1.731  -0.178  -0.802  0.00  0.00     0.004 A 
ATOM      4  C5  UNL d   1       1.790  -1.196  -1.754  0.00  0.00    -0.004 A 
ATOM      5  C6  UNL d   1       0.738  -2.110  -1.874  0.00  0.00    -0.075 A 
ATOM      6  C7  UNL d   1       0.787  -3.212  -2.891  0.00  0.00     0.076 C 
ATOM      7  C8  UNL d   1      -0.368  -1.994  -1.022  0.00  0.00     0.001 A 
ENDROOT
BRANCH   1   8
ATOM      8  C1  UNL d   1      -1.631  -0.861   0.849  0.00  0.00     0.053 C 
ATOM      9  C   UNL d   1      -1.275  -0.236   2.188  0.00  0.00     0.018 C 
ENDBRANCH   1   8
TORSDOF 1
ENDMDL
