MODEL 1
REMARK minimizedAffinity -5.60289431
REMARK minimizedRMSD -1
REMARK  1 active torsions:
REMARK  status: ('A' for Active; 'I' for Inactive)
REMARK    1  A    between atoms: C1_2  and  C2_3 
ROOT
ATOM      1  C2  UNL d   1       0.059  -0.165   0.304  0.00  0.00    -0.073 A 
ATOM      2  C3  UNL d   1      -0.590  -0.256   1.541  0.00  0.00    -0.002 A 
ATOM      3  C4  UNL d   1      -1.095   0.889   2.158  0.00  0.00     0.004 A 
ATOM      4  C5  UNL d   1      -0.963   2.134   1.543  0.00  0.00    -0.004 A 
ATOM      5  C6  UNL d   1      -0.328   2.244   0.302  0.00  0.00    -0.075 A 
ATOM      6  C7  UNL d   1      -0.177   3.576  -0.372  0.00  0.00     0.076 C 
ATOM      7  C8  UNL d   1       0.178   1.089  -0.310  0.00  0.00     0.001 A 
ENDROOT
BRANCH   1   8
ATOM      8  C1  UNL d   1       0.600  -1.400  -0.369  0.00  0.00     0.053 C 
ATOM      9  C   UNL d   1      -0.489  -2.181  -1.088  0.00  0.00     0.018 C 
ENDBRANCH   1   8
TORSDOF 1
ENDMDL
