MODEL 1
REMARK minimizedAffinity -3.75743461
REMARK minimizedRMSD -1
REMARK  1 active torsions:
REMARK  status: ('A' for Active; 'I' for Inactive)
REMARK    1  A    between atoms: C1_2  and  C2_3 
ROOT
ATOM      1  C2  UNL d   1       0.359  -0.336   0.080  0.00  0.00    -0.073 A 
ATOM      2  C3  UNL d   1      -0.440  -0.669   1.181  0.00  0.00    -0.002 A 
ATOM      3  C4  UNL d   1      -1.061   0.332   1.930  0.00  0.00     0.004 A 
ATOM      4  C5  UNL d   1      -0.896   1.673   1.583  0.00  0.00    -0.004 A 
ATOM      5  C6  UNL d   1      -0.112   2.025   0.480  0.00  0.00    -0.075 A 
ATOM      6  C7  UNL d   1       0.076   3.463   0.095  0.00  0.00     0.076 C 
ATOM      7  C8  UNL d   1       0.510   1.015  -0.266  0.00  0.00     0.001 A 
ENDROOT
BRANCH   1   8
ATOM      8  C1  UNL d   1       1.026  -1.413  -0.735  0.00  0.00     0.053 C 
ATOM      9  C   UNL d   1       0.058  -2.081  -1.698  0.00  0.00     0.018 C 
ENDBRANCH   1   8
TORSDOF 1
ENDMDL
