MODEL 1
REMARK minimizedAffinity -1.68862104
REMARK minimizedRMSD -1
REMARK  1 active torsions:
REMARK  status: ('A' for Active; 'I' for Inactive)
REMARK    1  A    between atoms: C1_2  and  C2_3 
ROOT
ATOM      1  C2  UNL d   1      -0.295   1.900   0.731  0.00  0.00    -0.073 A 
ATOM      2  C3  UNL d   1      -0.784   1.485   1.975  0.00  0.00    -0.002 A 
ATOM      3  C4  UNL d   1      -0.992   0.129   2.233  0.00  0.00     0.004 A 
ATOM      4  C5  UNL d   1      -0.709  -0.824   1.255  0.00  0.00    -0.004 A 
ATOM      5  C6  UNL d   1      -0.209  -0.429   0.009  0.00  0.00    -0.075 A 
ATOM      6  C7  UNL d   1       0.099  -1.441  -1.054  0.00  0.00     0.076 C 
ATOM      7  C8  UNL d   1      -0.004   0.934  -0.243  0.00  0.00     0.001 A 
ENDROOT
BRANCH   1   8
ATOM      8  C1  UNL d   1      -0.062   3.362   0.449  0.00  0.00     0.053 C 
ATOM      9  C   UNL d   1       0.213   3.622  -1.023  0.00  0.00     0.018 C 
ENDBRANCH   1   8
TORSDOF 1
ENDMDL
