MODEL 1
REMARK minimizedAffinity -2.08312654
REMARK minimizedRMSD -1
REMARK  1 active torsions:
REMARK  status: ('A' for Active; 'I' for Inactive)
REMARK    1  A    between atoms: C1_2  and  C2_3 
ROOT
ATOM      1  C2  UNL d   1      -0.174   0.552   1.113  0.00  0.00    -0.073 A 
ATOM      2  C3  UNL d   1      -0.771   1.359   2.088  0.00  0.00    -0.002 A 
ATOM      3  C4  UNL d   1      -0.961   2.722   1.855  0.00  0.00     0.004 A 
ATOM      4  C5  UNL d   1      -0.562   3.289   0.645  0.00  0.00    -0.004 A 
ATOM      5  C6  UNL d   1       0.026   2.497  -0.346  0.00  0.00    -0.075 A 
ATOM      6  C7  UNL d   1       0.462   3.092  -1.653  0.00  0.00     0.076 C 
ATOM      7  C8  UNL d   1       0.215   1.129  -0.104  0.00  0.00     0.001 A 
ENDROOT
BRANCH   1   8
ATOM      8  C1  UNL d   1       0.026  -0.922   1.358  0.00  0.00     0.053 C 
ATOM      9  C   UNL d   1       0.085  -1.251   2.841  0.00  0.00     0.018 C 
ENDBRANCH   1   8
TORSDOF 1
ENDMDL
