MODEL 1
REMARK minimizedAffinity -4.20313931
REMARK minimizedRMSD -1
REMARK  1 active torsions:
REMARK  status: ('A' for Active; 'I' for Inactive)
REMARK    1  A    between atoms: C1_2  and  C2_3 
ROOT
ATOM      1  C2  UNL d   1       0.610   0.048   0.108  0.00  0.00    -0.073 A 
ATOM      2  C3  UNL d   1      -0.121  -0.354   1.232  0.00  0.00    -0.002 A 
ATOM      3  C4  UNL d   1      -0.784   0.590   2.016  0.00  0.00     0.004 A 
ATOM      4  C5  UNL d   1      -0.730   1.943   1.682  0.00  0.00    -0.004 A 
ATOM      5  C6  UNL d   1      -0.015   2.364   0.557  0.00  0.00    -0.075 A 
ATOM      6  C7  UNL d   1       0.055   3.816   0.185  0.00  0.00     0.076 C 
ATOM      7  C8  UNL d   1       0.651   1.410  -0.225  0.00  0.00     0.001 A 
ENDROOT
BRANCH   1   8
ATOM      8  C1  UNL d   1       1.323  -0.968  -0.745  0.00  0.00     0.053 C 
ATOM      9  C   UNL d   1       0.351  -1.874  -1.485  0.00  0.00     0.018 C 
ENDBRANCH   1   8
TORSDOF 1
ENDMDL
