MODEL 1
REMARK minimizedAffinity -4.18944788
REMARK minimizedRMSD -1
REMARK  1 active torsions:
REMARK  status: ('A' for Active; 'I' for Inactive)
REMARK    1  A    between atoms: C1_2  and  C2_3 
ROOT
ATOM      1  C2  UNL d   1      -0.304   2.755   0.480  0.00  0.00    -0.073 A 
ATOM      2  C3  UNL d   1      -1.058   2.528   1.638  0.00  0.00    -0.002 A 
ATOM      3  C4  UNL d   1      -1.265   1.228   2.100  0.00  0.00     0.004 A 
ATOM      4  C5  UNL d   1      -0.717   0.144   1.415  0.00  0.00    -0.004 A 
ATOM      5  C6  UNL d   1       0.049   0.351   0.263  0.00  0.00    -0.075 A 
ATOM      6  C7  UNL d   1       0.644  -0.805  -0.487  0.00  0.00     0.076 C 
ATOM      7  C8  UNL d   1       0.250   1.660  -0.196  0.00  0.00     0.001 A 
ENDROOT
BRANCH   1   8
ATOM      8  C1  UNL d   1      -0.072   4.158  -0.019  0.00  0.00     0.053 C 
ATOM      9  C   UNL d   1       0.868   4.937   0.887  0.00  0.00     0.018 C 
ENDBRANCH   1   8
TORSDOF 1
ENDMDL
