MODEL 1
REMARK minimizedAffinity -1.7954545
REMARK minimizedRMSD -1
REMARK  1 active torsions:
REMARK  status: ('A' for Active; 'I' for Inactive)
REMARK    1  A    between atoms: C1_2  and  C2_3 
ROOT
ATOM      1  C2  UNL d   1      -0.272  -0.755  -0.498  0.00  0.00    -0.073 A 
ATOM      2  C3  UNL d   1       0.481  -0.068  -1.457  0.00  0.00    -0.002 A 
ATOM      3  C4  UNL d   1       0.829   1.268  -1.254  0.00  0.00     0.004 A 
ATOM      4  C5  UNL d   1       0.435   1.928  -0.090  0.00  0.00    -0.004 A 
ATOM      5  C6  UNL d   1      -0.307   1.254   0.885  0.00  0.00    -0.075 A 
ATOM      6  C7  UNL d   1      -0.741   1.950   2.142  0.00  0.00     0.076 C 
ATOM      7  C8  UNL d   1      -0.655  -0.087   0.674  0.00  0.00     0.001 A 
ENDROOT
BRANCH   1   8
ATOM      8  C1  UNL d   1      -0.644  -2.200  -0.709  0.00  0.00     0.053 C 
ATOM      9  C   UNL d   1       0.450  -2.972  -1.428  0.00  0.00     0.018 C 
ENDBRANCH   1   8
TORSDOF 1
ENDMDL
