MODEL 1
REMARK minimizedAffinity -3.90389323
REMARK minimizedRMSD -1
REMARK  0 active torsions:
REMARK  status: ('A' for Active; 'I' for Inactive)
ROOT
ATOM      1  C   UNL d   1       2.106  -1.095   2.940  0.00  0.00     0.077 C 
ATOM      2  C1  UNL d   1       0.881  -0.824   2.118  0.00  0.00    -0.074 A 
ATOM      3  C2  UNL d   1      -0.398  -0.963   2.667  0.00  0.00    -0.005 A 
ATOM      4  C3  UNL d   1      -1.528  -0.699   1.894  0.00  0.00     0.006 A 
ATOM      5  C4  UNL d   1      -1.391  -0.293   0.566  0.00  0.00    -0.005 A 
ATOM      6  C5  UNL d   1      -0.121  -0.147   0.000  0.00  0.00    -0.074 A 
ATOM      7  C6  UNL d   1       0.044   0.298  -1.423  0.00  0.00     0.077 C 
ATOM      8  C7  UNL d   1       1.010  -0.408   0.786  0.00  0.00    -0.001 A 
ENDROOT
TORSDOF 0
ENDMDL
