MODEL 1
REMARK minimizedAffinity 2.01384282
REMARK minimizedRMSD -1
REMARK  0 active torsions:
REMARK  status: ('A' for Active; 'I' for Inactive)
ROOT
ATOM      1  C   UNL d   1      -0.307  -0.661   2.920  0.00  0.00     0.077 C 
ATOM      2  C1  UNL d   1       0.191  -0.548   1.510  0.00  0.00    -0.074 A 
ATOM      3  C2  UNL d   1       1.222  -1.370   1.044  0.00  0.00    -0.005 A 
ATOM      4  C3  UNL d   1       1.668  -1.260  -0.273  0.00  0.00     0.006 A 
ATOM      5  C4  UNL d   1       1.090  -0.328  -1.136  0.00  0.00    -0.005 A 
ATOM      6  C5  UNL d   1       0.057   0.502  -0.688  0.00  0.00    -0.074 A 
ATOM      7  C6  UNL d   1      -0.582   1.502  -1.605  0.00  0.00     0.077 C 
ATOM      8  C7  UNL d   1      -0.390   0.381   0.635  0.00  0.00    -0.001 A 
ENDROOT
TORSDOF 0
ENDMDL
