MODEL 1
REMARK minimizedAffinity -5.59814739
REMARK minimizedRMSD -1
REMARK  0 active torsions:
REMARK  status: ('A' for Active; 'I' for Inactive)
ROOT
ATOM      1  C   UNL d   1      -0.697   0.711  -1.433  0.00  0.00     0.077 C 
ATOM      2  C1  UNL d   1       0.233  -0.048  -0.533  0.00  0.00    -0.074 A 
ATOM      3  C2  UNL d   1       1.303  -0.779  -1.058  0.00  0.00    -0.005 A 
ATOM      4  C3  UNL d   1       2.165  -1.472  -0.208  0.00  0.00     0.006 A 
ATOM      5  C4  UNL d   1       1.965  -1.441   1.173  0.00  0.00    -0.005 A 
ATOM      6  C5  UNL d   1       0.900  -0.715   1.716  0.00  0.00    -0.074 A 
ATOM      7  C6  UNL d   1       0.677  -0.663   3.198  0.00  0.00     0.077 C 
ATOM      8  C7  UNL d   1       0.043  -0.015   0.855  0.00  0.00    -0.001 A 
ENDROOT
TORSDOF 0
ENDMDL
