MODEL 1
REMARK minimizedAffinity -3.67754984
REMARK minimizedRMSD -1
REMARK  0 active torsions:
REMARK  status: ('A' for Active; 'I' for Inactive)
ROOT
ATOM      1  C   UNL d   1       0.065   4.109  -1.225  0.00  0.00     0.077 C 
ATOM      2  C1  UNL d   1      -0.352   2.669  -1.250  0.00  0.00    -0.074 A 
ATOM      3  C2  UNL d   1      -0.837   2.081  -2.422  0.00  0.00    -0.005 A 
ATOM      4  C3  UNL d   1      -1.212   0.738  -2.433  0.00  0.00     0.006 A 
ATOM      5  C4  UNL d   1      -1.105  -0.031  -1.273  0.00  0.00    -0.005 A 
ATOM      6  C5  UNL d   1      -0.621   0.539  -0.091  0.00  0.00    -0.074 A 
ATOM      7  C6  UNL d   1      -0.490  -0.275   1.161  0.00  0.00     0.077 C 
ATOM      8  C7  UNL d   1      -0.240   1.888  -0.091  0.00  0.00    -0.001 A 
ENDROOT
TORSDOF 0
ENDMDL
