MODEL 1
REMARK minimizedAffinity -2.17558455
REMARK minimizedRMSD -1
REMARK  0 active torsions:
REMARK  status: ('A' for Active; 'I' for Inactive)
ROOT
ATOM      1  C   UNL d   1       0.374   3.298  -3.019  0.00  0.00     0.077 C 
ATOM      2  C1  UNL d   1      -0.259   2.157  -2.280  0.00  0.00    -0.074 A 
ATOM      3  C2  UNL d   1      -1.455   1.586  -2.728  0.00  0.00    -0.005 A 
ATOM      4  C3  UNL d   1      -2.027   0.519  -2.036  0.00  0.00     0.006 A 
ATOM      5  C4  UNL d   1      -1.410   0.012  -0.891  0.00  0.00    -0.005 A 
ATOM      6  C5  UNL d   1      -0.213   0.569  -0.430  0.00  0.00    -0.074 A 
ATOM      7  C6  UNL d   1       0.468   0.030   0.793  0.00  0.00     0.077 C 
ATOM      8  C7  UNL d   1       0.359   1.637  -1.134  0.00  0.00    -0.001 A 
ENDROOT
TORSDOF 0
ENDMDL
