MODEL 1
REMARK minimizedAffinity -3.307585
REMARK minimizedRMSD -1
REMARK  0 active torsions:
REMARK  status: ('A' for Active; 'I' for Inactive)
ROOT
ATOM      1  C   UNL d   1       0.568  -0.717  -2.240  0.00  0.00     0.077 C 
ATOM      2  C1  UNL d   1      -0.037  -0.230  -0.957  0.00  0.00    -0.074 A 
ATOM      3  C2  UNL d   1      -1.028   0.757  -0.959  0.00  0.00    -0.005 A 
ATOM      4  C3  UNL d   1      -1.588   1.194   0.242  0.00  0.00     0.006 A 
ATOM      5  C4  UNL d   1      -1.163   0.648   1.454  0.00  0.00    -0.005 A 
ATOM      6  C5  UNL d   1      -0.174  -0.340   1.475  0.00  0.00    -0.074 A 
ATOM      7  C6  UNL d   1       0.286  -0.944   2.769  0.00  0.00     0.077 C 
ATOM      8  C7  UNL d   1       0.379  -0.779   0.264  0.00  0.00    -0.001 A 
ENDROOT
TORSDOF 0
ENDMDL
