MODEL 1
REMARK minimizedAffinity -4.32516956
REMARK minimizedRMSD -1
REMARK  0 active torsions:
REMARK  status: ('A' for Active; 'I' for Inactive)
ROOT
ATOM      1  C   UNL d   1       2.766  -2.020   3.130  0.00  0.00     0.077 C 
ATOM      2  C1  UNL d   1       2.094  -1.569   1.867  0.00  0.00    -0.074 A 
ATOM      3  C2  UNL d   1       2.542  -2.010   0.618  0.00  0.00    -0.005 A 
ATOM      4  C3  UNL d   1       1.901  -1.590  -0.548  0.00  0.00     0.006 A 
ATOM      5  C4  UNL d   1       0.808  -0.726  -0.476  0.00  0.00    -0.005 A 
ATOM      6  C5  UNL d   1       0.345  -0.275   0.764  0.00  0.00    -0.074 A 
ATOM      7  C6  UNL d   1      -0.835   0.646   0.860  0.00  0.00     0.077 C 
ATOM      8  C7  UNL d   1       0.990  -0.707   1.931  0.00  0.00    -0.001 A 
ENDROOT
TORSDOF 0
ENDMDL
