MODEL 1
REMARK minimizedAffinity -3.77682924
REMARK minimizedRMSD -1
REMARK  0 active torsions:
REMARK  status: ('A' for Active; 'I' for Inactive)
ROOT
ATOM      1  C   UNL d   1       2.155  -1.712   2.978  0.00  0.00     0.077 C 
ATOM      2  C1  UNL d   1       1.456  -0.927   1.909  0.00  0.00    -0.074 A 
ATOM      3  C2  UNL d   1       2.181  -0.262   0.915  0.00  0.00    -0.005 A 
ATOM      4  C3  UNL d   1       1.517   0.457  -0.079  0.00  0.00     0.006 A 
ATOM      5  C4  UNL d   1       0.123   0.518  -0.089  0.00  0.00    -0.005 A 
ATOM      6  C5  UNL d   1      -0.619  -0.141   0.896  0.00  0.00    -0.074 A 
ATOM      7  C6  UNL d   1      -2.119  -0.094   0.894  0.00  0.00     0.077 C 
ATOM      8  C7  UNL d   1       0.055  -0.867   1.887  0.00  0.00    -0.001 A 
ENDROOT
TORSDOF 0
ENDMDL
