MODEL 1
REMARK minimizedAffinity -2.05397177
REMARK minimizedRMSD -1
REMARK  0 active torsions:
REMARK  status: ('A' for Active; 'I' for Inactive)
ROOT
ATOM      1  C2' OXE d   1       0.028   0.677  -1.247  0.00  0.00     0.078 C 
ATOM      2  C1' OXE d   1      -2.276   0.147   0.266  0.00  0.00     0.078 C 
ATOM      3  C1  OXE d   1      -0.943   0.086   0.969  0.00  0.00    -0.078 A 
ATOM      4  C2  OXE d   1       0.182   0.301   0.211  0.00  0.00    -0.078 A 
ATOM      5  C3  OXE d   1       1.433   0.310   0.820  0.00  0.00     0.003 A 
ATOM      6  C4  OXE d   1       1.568  -0.049   2.167  0.00  0.00    -0.002 A 
ATOM      7  C5  OXE d   1       0.438  -0.310   2.949  0.00  0.00    -0.002 A 
ATOM      8  C6  OXE d   1      -0.825  -0.206   2.377  0.00  0.00     0.003 A 
ENDROOT
TORSDOF 0
ENDMDL
