MODEL 1
REMARK minimizedAffinity -4.26450968
REMARK minimizedRMSD -1
REMARK  0 active torsions:
REMARK  status: ('A' for Active; 'I' for Inactive)
ROOT
ATOM      1  C2' OXE d   1      -0.055   0.156  -0.906  0.00  0.00     0.078 C 
ATOM      2  C1' OXE d   1       1.591  -0.041   1.359  0.00  0.00     0.078 C 
ATOM      3  C1  OXE d   1       0.098  -0.022   1.574  0.00  0.00    -0.078 A 
ATOM      4  C2  OXE d   1      -0.698   0.122   0.463  0.00  0.00    -0.078 A 
ATOM      5  C3  OXE d   1      -2.083   0.090   0.599  0.00  0.00     0.003 A 
ATOM      6  C4  OXE d   1      -2.670   0.067   1.870  0.00  0.00    -0.002 A 
ATOM      7  C5  OXE d   1      -1.876  -0.039   3.017  0.00  0.00    -0.002 A 
ATOM      8  C6  OXE d   1      -0.495  -0.128   2.884  0.00  0.00     0.003 A 
ENDROOT
TORSDOF 0
ENDMDL
