MODEL 1
REMARK minimizedAffinity -2.51074052
REMARK minimizedRMSD -1
REMARK  0 active torsions:
REMARK  status: ('A' for Active; 'I' for Inactive)
ROOT
ATOM      1  C2' OXE d   1      -2.836  -0.626   0.822  0.00  0.00     0.078 C 
ATOM      2  C1' OXE d   1      -1.011  -0.414   2.945  0.00  0.00     0.078 C 
ATOM      3  C1  OXE d   1      -0.519  -0.082   1.558  0.00  0.00    -0.078 A 
ATOM      4  C2  OXE d   1      -1.406  -0.233   0.520  0.00  0.00    -0.078 A 
ATOM      5  C3  OXE d   1      -1.020   0.112  -0.772  0.00  0.00     0.003 A 
ATOM      6  C4  OXE d   1       0.307   0.465  -1.045  0.00  0.00    -0.002 A 
ATOM      7  C5  OXE d   1       1.237   0.587  -0.007  0.00  0.00    -0.002 A 
ATOM      8  C6  OXE d   1       0.830   0.359   1.303  0.00  0.00     0.003 A 
ENDROOT
TORSDOF 0
ENDMDL
