MODEL 1
REMARK minimizedAffinity -3.55920768
REMARK minimizedRMSD -1
REMARK  0 active torsions:
REMARK  status: ('A' for Active; 'I' for Inactive)
ROOT
ATOM      1  C2' OXE d   1       0.238  -0.728  -1.108  0.00  0.00     0.078 C 
ATOM      2  C1' OXE d   1       1.419   1.332   0.390  0.00  0.00     0.078 C 
ATOM      3  C1  OXE d   1       0.455   0.411   1.097  0.00  0.00    -0.078 A 
ATOM      4  C2  OXE d   1      -0.153  -0.565   0.345  0.00  0.00    -0.078 A 
ATOM      5  C3  OXE d   1      -1.008  -1.476   0.959  0.00  0.00     0.003 A 
ATOM      6  C4  OXE d   1      -1.372  -1.312   2.301  0.00  0.00    -0.002 A 
ATOM      7  C5  OXE d   1      -0.795  -0.300   3.075  0.00  0.00    -0.002 A 
ATOM      8  C6  OXE d   1       0.151   0.541   2.500  0.00  0.00     0.003 A 
ENDROOT
TORSDOF 0
ENDMDL
