MODEL 1
REMARK minimizedAffinity -3.12592101
REMARK minimizedRMSD -1
REMARK  0 active torsions:
REMARK  status: ('A' for Active; 'I' for Inactive)
ROOT
ATOM      1  C2' OXE d   1       0.479  -0.382  -0.869  0.00  0.00     0.078 C 
ATOM      2  C1' OXE d   1       2.399  -0.803   1.136  0.00  0.00     0.078 C 
ATOM      3  C1  OXE d   1       0.958  -0.661   1.560  0.00  0.00    -0.078 A 
ATOM      4  C2  OXE d   1       0.032  -0.409   0.577  0.00  0.00    -0.078 A 
ATOM      5  C3  OXE d   1      -1.318  -0.323   0.907  0.00  0.00     0.003 A 
ATOM      6  C4  OXE d   1      -1.722  -0.339   2.247  0.00  0.00    -0.002 A 
ATOM      7  C5  OXE d   1      -0.790  -0.555   3.267  0.00  0.00    -0.002 A 
ATOM      8  C6  OXE d   1       0.545  -0.760   2.938  0.00  0.00     0.003 A 
ENDROOT
TORSDOF 0
ENDMDL
