MODEL 1
REMARK minimizedAffinity -4.49664116
REMARK minimizedRMSD -1
REMARK  0 active torsions:
REMARK  status: ('A' for Active; 'I' for Inactive)
ROOT
ATOM      1  C2' OXE d   1      -0.010   0.305  -0.941  0.00  0.00     0.078 C 
ATOM      2  C1' OXE d   1       2.267   0.305   0.700  0.00  0.00     0.078 C 
ATOM      3  C1  OXE d   1       0.939  -0.017   1.339  0.00  0.00    -0.078 A 
ATOM      4  C2  OXE d   1      -0.176   0.031   0.538  0.00  0.00    -0.078 A 
ATOM      5  C3  OXE d   1      -1.418  -0.311   1.064  0.00  0.00     0.003 A 
ATOM      6  C4  OXE d   1      -1.565  -0.553   2.435  0.00  0.00    -0.002 A 
ATOM      7  C5  OXE d   1      -0.447  -0.568   3.277  0.00  0.00    -0.002 A 
ATOM      8  C6  OXE d   1       0.815  -0.344   2.738  0.00  0.00     0.003 A 
ENDROOT
TORSDOF 0
ENDMDL
