MODEL 1
REMARK minimizedAffinity -4.81213236
REMARK minimizedRMSD -1
REMARK  0 active torsions:
REMARK  status: ('A' for Active; 'I' for Inactive)
ROOT
ATOM      1  C2' OXE d   1      -0.449  -0.635   2.847  0.00  0.00     0.078 C 
ATOM      2  C1' OXE d   1      -2.459  -0.790   0.894  0.00  0.00     0.078 C 
ATOM      3  C1  OXE d   1      -1.106  -0.275   0.472  0.00  0.00    -0.078 A 
ATOM      4  C2  OXE d   1      -0.142  -0.159   1.444  0.00  0.00    -0.078 A 
ATOM      5  C3  OXE d   1       1.139   0.260   1.098  0.00  0.00     0.003 A 
ATOM      6  C4  OXE d   1       1.412   0.708  -0.200  0.00  0.00    -0.002 A 
ATOM      7  C5  OXE d   1       0.433   0.635  -1.197  0.00  0.00    -0.002 A 
ATOM      8  C6  OXE d   1      -0.816   0.107  -0.888  0.00  0.00     0.003 A 
ENDROOT
TORSDOF 0
ENDMDL
