MODEL 1
REMARK minimizedAffinity -2.26072264
REMARK minimizedRMSD -1
REMARK  0 active torsions:
REMARK  status: ('A' for Active; 'I' for Inactive)
ROOT
ATOM      1  C2' OXE d   1       0.481   0.227  -1.283  0.00  0.00     0.078 C 
ATOM      2  C1' OXE d   1       2.248   1.329   0.600  0.00  0.00     0.078 C 
ATOM      3  C1  OXE d   1       1.037   0.594   1.117  0.00  0.00    -0.078 A 
ATOM      4  C2  OXE d   1       0.153   0.099   0.189  0.00  0.00    -0.078 A 
ATOM      5  C3  OXE d   1      -0.952  -0.634   0.611  0.00  0.00     0.003 A 
ATOM      6  C4  OXE d   1      -1.254  -0.739   1.975  0.00  0.00    -0.002 A 
ATOM      7  C5  OXE d   1      -0.388  -0.208   2.936  0.00  0.00    -0.002 A 
ATOM      8  C6  OXE d   1       0.781   0.423   2.526  0.00  0.00     0.003 A 
ENDROOT
TORSDOF 0
ENDMDL
