MODEL 1
REMARK minimizedAffinity -2.96465921
REMARK minimizedRMSD -1
REMARK  0 active torsions:
REMARK  status: ('A' for Active; 'I' for Inactive)
ROOT
ATOM      1  C2' OXE d   1      -0.672  -0.842   3.277  0.00  0.00     0.078 C 
ATOM      2  C1' OXE d   1       1.815   0.107   2.387  0.00  0.00     0.078 C 
ATOM      3  C1  OXE d   1       0.731  -0.099   1.358  0.00  0.00    -0.078 A 
ATOM      4  C2  OXE d   1      -0.468  -0.608   1.796  0.00  0.00    -0.078 A 
ATOM      5  C3  OXE d   1      -1.519  -0.765   0.897  0.00  0.00     0.003 A 
ATOM      6  C4  OXE d   1      -1.318  -0.555  -0.473  0.00  0.00    -0.002 A 
ATOM      7  C5  OXE d   1      -0.092  -0.074  -0.945  0.00  0.00    -0.002 A 
ATOM      8  C6  OXE d   1       0.927   0.199  -0.039  0.00  0.00     0.003 A 
ENDROOT
TORSDOF 0
ENDMDL
