MODEL 1
REMARK minimizedAffinity -4.96321821
REMARK minimizedRMSD -1
REMARK  0 active torsions:
REMARK  status: ('A' for Active; 'I' for Inactive)
ROOT
ATOM      1  C2' OXE d   1       1.513   0.912   0.394  0.00  0.00     0.078 C 
ATOM      2  C1' OXE d   1      -0.582  -0.157  -1.138  0.00  0.00     0.078 C 
ATOM      3  C1  OXE d   1      -0.628  -0.361   0.355  0.00  0.00    -0.078 A 
ATOM      4  C2  OXE d   1       0.425   0.125   1.092  0.00  0.00    -0.078 A 
ATOM      5  C3  OXE d   1       0.406   0.011   2.479  0.00  0.00     0.003 A 
ATOM      6  C4  OXE d   1      -0.599  -0.727   3.117  0.00  0.00    -0.002 A 
ATOM      7  C5  OXE d   1      -1.660  -1.264   2.380  0.00  0.00    -0.002 A 
ATOM      8  C6  OXE d   1      -1.712  -1.054   1.007  0.00  0.00     0.003 A 
ENDROOT
TORSDOF 0
ENDMDL
