MODEL 1
REMARK minimizedAffinity -1.45511055
REMARK minimizedRMSD -1
REMARK  0 active torsions:
REMARK  status: ('A' for Active; 'I' for Inactive)
ROOT
ATOM      1  C2' OXE d   1       0.315  -0.232  -1.934  0.00  0.00     0.078 C 
ATOM      2  C1' OXE d   1      -1.951   1.056  -0.893  0.00  0.00     0.078 C 
ATOM      3  C1  OXE d   1      -0.824   0.738   0.058  0.00  0.00    -0.078 A 
ATOM      4  C2  OXE d   1       0.262   0.066  -0.451  0.00  0.00    -0.078 A 
ATOM      5  C3  OXE d   1       1.353  -0.203   0.370  0.00  0.00     0.003 A 
ATOM      6  C4  OXE d   1       1.291   0.067   1.742  0.00  0.00    -0.002 A 
ATOM      7  C5  OXE d   1       0.178   0.716   2.289  0.00  0.00    -0.002 A 
ATOM      8  C6  OXE d   1      -0.867   1.095   1.454  0.00  0.00     0.003 A 
ENDROOT
TORSDOF 0
ENDMDL
