MODEL 1
REMARK minimizedAffinity -3.87392616
REMARK minimizedRMSD -1
REMARK  0 active torsions:
REMARK  status: ('A' for Active; 'I' for Inactive)
ROOT
ATOM      1  C2' OXE d   1       1.823   1.300   0.696  0.00  0.00     0.078 C 
ATOM      2  C1' OXE d   1      -0.005   0.426  -1.247  0.00  0.00     0.078 C 
ATOM      3  C1  OXE d   1      -0.269   0.046   0.189  0.00  0.00    -0.078 A 
ATOM      4  C2  OXE d   1       0.656   0.438   1.127  0.00  0.00    -0.078 A 
ATOM      5  C3  OXE d   1       0.433   0.162   2.473  0.00  0.00     0.003 A 
ATOM      6  C4  OXE d   1      -0.644  -0.644   2.862  0.00  0.00    -0.002 A 
ATOM      7  C5  OXE d   1      -1.577  -1.088   1.917  0.00  0.00    -0.002 A 
ATOM      8  C6  OXE d   1      -1.427  -0.716   0.586  0.00  0.00     0.003 A 
ENDROOT
TORSDOF 0
ENDMDL
