MODEL 1
REMARK minimizedAffinity -2.84382653
REMARK minimizedRMSD -1
REMARK  0 active torsions:
REMARK  status: ('A' for Active; 'I' for Inactive)
ROOT
ATOM      1  C2' OXE d   1       1.536   1.604   0.948  0.00  0.00     0.078 C 
ATOM      2  C1' OXE d   1       0.300  -0.161  -0.851  0.00  0.00     0.078 C 
ATOM      3  C1  OXE d   1      -0.023  -0.311   0.615  0.00  0.00    -0.078 A 
ATOM      4  C2  OXE d   1       0.622   0.527   1.493  0.00  0.00    -0.078 A 
ATOM      5  C3  OXE d   1       0.320   0.468   2.850  0.00  0.00     0.003 A 
ATOM      6  C4  OXE d   1      -0.519  -0.538   3.346  0.00  0.00    -0.002 A 
ATOM      7  C5  OXE d   1      -1.155  -1.427   2.474  0.00  0.00    -0.002 A 
ATOM      8  C6  OXE d   1      -0.951  -1.300   1.104  0.00  0.00     0.003 A 
ENDROOT
TORSDOF 0
ENDMDL
