MODEL 1
REMARK minimizedAffinity -2.41017199
REMARK minimizedRMSD -1
REMARK  0 active torsions:
REMARK  status: ('A' for Active; 'I' for Inactive)
ROOT
ATOM      1  C2' OXE d   1       2.065   0.772   1.052  0.00  0.00     0.078 C 
ATOM      2  C1' OXE d   1      -0.175  -0.119   2.490  0.00  0.00     0.078 C 
ATOM      3  C1  OXE d   1      -0.316   0.045   0.997  0.00  0.00    -0.078 A 
ATOM      4  C2  OXE d   1       0.771   0.526   0.308  0.00  0.00    -0.078 A 
ATOM      5  C3  OXE d   1       0.711   0.644  -1.078  0.00  0.00     0.003 A 
ATOM      6  C4  OXE d   1      -0.493   0.424  -1.757  0.00  0.00    -0.002 A 
ATOM      7  C5  OXE d   1      -1.624  -0.029  -1.069  0.00  0.00    -0.002 A 
ATOM      8  C6  OXE d   1      -1.540  -0.264   0.299  0.00  0.00     0.003 A 
ENDROOT
TORSDOF 0
ENDMDL
