MODEL 1
REMARK minimizedAffinity -5.79640627
REMARK minimizedRMSD -1
REMARK  0 active torsions:
REMARK  status: ('A' for Active; 'I' for Inactive)
ROOT
ATOM      1  C2' OXE d   1      -0.159   0.602  -1.384  0.00  0.00     0.078 C 
ATOM      2  C1' OXE d   1      -2.460   0.177   0.166  0.00  0.00     0.078 C 
ATOM      3  C1  OXE d   1      -1.121  -0.078   0.811  0.00  0.00    -0.078 A 
ATOM      4  C2  OXE d   1      -0.002   0.088   0.031  0.00  0.00    -0.078 A 
ATOM      5  C3  OXE d   1       1.261  -0.081   0.592  0.00  0.00     0.003 A 
ATOM      6  C4  OXE d   1       1.397  -0.566   1.898  0.00  0.00    -0.002 A 
ATOM      7  C5  OXE d   1       0.269  -0.780   2.697  0.00  0.00    -0.002 A 
ATOM      8  C6  OXE d   1      -0.993  -0.500   2.184  0.00  0.00     0.003 A 
ENDROOT
TORSDOF 0
ENDMDL
