MODEL 1
REMARK minimizedAffinity -3.49090433
REMARK minimizedRMSD -1
REMARK  0 active torsions:
REMARK  status: ('A' for Active; 'I' for Inactive)
ROOT
ATOM      1  C2' OXE d   1      -0.555  -1.426   2.573  0.00  0.00     0.078 C 
ATOM      2  C1' OXE d   1       1.718   0.131   2.034  0.00  0.00     0.078 C 
ATOM      3  C1  OXE d   1       0.600   0.145   1.022  0.00  0.00    -0.078 A 
ATOM      4  C2  OXE d   1      -0.489  -0.656   1.271  0.00  0.00    -0.078 A 
ATOM      5  C3  OXE d   1      -1.572  -0.639   0.397  0.00  0.00     0.003 A 
ATOM      6  C4  OXE d   1      -1.498   0.068  -0.809  0.00  0.00    -0.002 A 
ATOM      7  C5  OXE d   1      -0.382   0.859  -1.101  0.00  0.00    -0.002 A 
ATOM      8  C6  OXE d   1       0.655   0.942  -0.179  0.00  0.00     0.003 A 
ENDROOT
TORSDOF 0
ENDMDL
