MODEL 1
REMARK minimizedAffinity -2.55577469
REMARK minimizedRMSD -1
REMARK  0 active torsions:
REMARK  status: ('A' for Active; 'I' for Inactive)
ROOT
ATOM      1  C2' OXE d   1      -1.092  -0.362   2.886  0.00  0.00     0.078 C 
ATOM      2  C1' OXE d   1      -3.007  -0.051   0.857  0.00  0.00     0.078 C 
ATOM      3  C1  OXE d   1      -1.554   0.107   0.484  0.00  0.00    -0.078 A 
ATOM      4  C2  OXE d   1      -0.627  -0.001   1.492  0.00  0.00    -0.078 A 
ATOM      5  C3  OXE d   1       0.730   0.081   1.192  0.00  0.00     0.003 A 
ATOM      6  C4  OXE d   1       1.152   0.425  -0.098  0.00  0.00    -0.002 A 
ATOM      7  C5  OXE d   1       0.221   0.578  -1.131  0.00  0.00    -0.002 A 
ATOM      8  C6  OXE d   1      -1.130   0.381  -0.867  0.00  0.00     0.003 A 
ENDROOT
TORSDOF 0
ENDMDL
