MODEL 1
REMARK minimizedAffinity -5.58332682
REMARK minimizedRMSD -1
REMARK  0 active torsions:
REMARK  status: ('A' for Active; 'I' for Inactive)
ROOT
ATOM      1  C2' OXE d   1       1.782   0.183   1.313  0.00  0.00     0.078 C 
ATOM      2  C1' OXE d   1      -0.076  -0.338  -0.726  0.00  0.00     0.078 C 
ATOM      3  C1  OXE d   1      -0.602  -0.164   0.677  0.00  0.00    -0.078 A 
ATOM      4  C2  OXE d   1       0.319   0.044   1.675  0.00  0.00    -0.078 A 
ATOM      5  C3  OXE d   1      -0.117   0.265   2.979  0.00  0.00     0.003 A 
ATOM      6  C4  OXE d   1      -1.470   0.126   3.307  0.00  0.00    -0.002 A 
ATOM      7  C5  OXE d   1      -2.420  -0.126   2.312  0.00  0.00    -0.002 A 
ATOM      8  C6  OXE d   1      -2.008  -0.231   0.988  0.00  0.00     0.003 A 
ENDROOT
TORSDOF 0
ENDMDL
