MODEL 1
REMARK minimizedAffinity -4.80610895
REMARK minimizedRMSD -1
REMARK  0 active torsions:
REMARK  status: ('A' for Active; 'I' for Inactive)
ROOT
ATOM      1  C2' OXE d   1      -2.767  -0.621   0.693  0.00  0.00     0.078 C 
ATOM      2  C1' OXE d   1      -0.775  -0.963   2.641  0.00  0.00     0.078 C 
ATOM      3  C1  OXE d   1      -0.341  -0.560   1.254  0.00  0.00    -0.078 A 
ATOM      4  C2  OXE d   1      -1.318  -0.440   0.295  0.00  0.00    -0.078 A 
ATOM      5  C3  OXE d   1      -0.978  -0.018  -0.987  0.00  0.00     0.003 A 
ATOM      6  C4  OXE d   1       0.366   0.138  -1.348  0.00  0.00    -0.002 A 
ATOM      7  C5  OXE d   1       1.380  -0.017  -0.397  0.00  0.00    -0.002 A 
ATOM      8  C6  OXE d   1       1.041  -0.324   0.916  0.00  0.00     0.003 A 
ENDROOT
TORSDOF 0
ENDMDL
