MODEL 1
REMARK minimizedAffinity -2.92185521
REMARK minimizedRMSD -1
REMARK  0 active torsions:
REMARK  status: ('A' for Active; 'I' for Inactive)
ROOT
ATOM      1  C2' OXE d   1       2.158   0.248   1.216  0.00  0.00     0.078 C 
ATOM      2  C1' OXE d   1      -0.167  -0.162   2.735  0.00  0.00     0.078 C 
ATOM      3  C1  OXE d   1      -0.325   0.048   1.250  0.00  0.00    -0.078 A 
ATOM      4  C2  OXE d   1       0.813   0.295   0.522  0.00  0.00    -0.078 A 
ATOM      5  C3  OXE d   1       0.729   0.442  -0.860  0.00  0.00     0.003 A 
ATOM      6  C4  OXE d   1      -0.519   0.494  -1.493  0.00  0.00    -0.002 A 
ATOM      7  C5  OXE d   1      -1.694   0.284  -0.763  0.00  0.00    -0.002 A 
ATOM      8  C6  OXE d   1      -1.612   0.019   0.599  0.00  0.00     0.003 A 
ENDROOT
TORSDOF 0
ENDMDL
