MODEL 1
REMARK minimizedAffinity -5.11817312
REMARK minimizedRMSD -1
REMARK  0 active torsions:
REMARK  status: ('A' for Active; 'I' for Inactive)
ROOT
ATOM      1  C4' PXY d   1      -1.310   0.826  -2.111  0.00  0.00     0.077 C 
ATOM      2  C1' PXY d   1       0.872  -0.995   2.922  0.00  0.00     0.077 C 
ATOM      3  C1  PXY d   1       0.288  -0.522   1.606  0.00  0.00    -0.082 A 
ATOM      4  C2  PXY d   1       1.080  -0.363   0.558  0.00  0.00     0.003 A 
ATOM      5  C3  PXY d   1       0.574   0.095  -0.631  0.00  0.00     0.003 A 
ATOM      6  C4  PXY d   1      -0.766   0.341  -0.765  0.00  0.00    -0.082 A 
ATOM      7  C5  PXY d   1      -1.583   0.171   0.296  0.00  0.00     0.003 A 
ATOM      8  C6  PXY d   1      -1.043  -0.255   1.506  0.00  0.00     0.003 A 
ENDROOT
TORSDOF 0
ENDMDL
