MODEL 1
REMARK minimizedAffinity -4.52564621
REMARK minimizedRMSD -1
REMARK  0 active torsions:
REMARK  status: ('A' for Active; 'I' for Inactive)
ROOT
ATOM      1  C4' PXY d   1      -2.300   0.302   2.028  0.00  0.00     0.077 C 
ATOM      2  C1' PXY d   1       3.066  -1.821   1.679  0.00  0.00     0.077 C 
ATOM      3  C1  PXY d   1       1.662  -1.254   1.763  0.00  0.00    -0.082 A 
ATOM      4  C2  PXY d   1       0.891  -1.567   2.792  0.00  0.00     0.003 A 
ATOM      5  C3  PXY d   1      -0.392  -1.089   2.867  0.00  0.00     0.003 A 
ATOM      6  C4  PXY d   1      -0.873  -0.240   1.907  0.00  0.00    -0.082 A 
ATOM      7  C5  PXY d   1      -0.088   0.093   0.860  0.00  0.00     0.003 A 
ATOM      8  C6  PXY d   1       1.197  -0.436   0.780  0.00  0.00     0.003 A 
ENDROOT
TORSDOF 0
ENDMDL
