MODEL 1
REMARK minimizedAffinity 0.702973902
REMARK minimizedRMSD -1
REMARK  0 active torsions:
REMARK  status: ('A' for Active; 'I' for Inactive)
ROOT
ATOM      1  C4' PXY d   1      -4.035   3.083  -1.912  0.00  0.00     0.077 C 
ATOM      2  C1' PXY d   1       1.414   2.200  -3.626  0.00  0.00     0.077 C 
ATOM      3  C1  PXY d   1      -0.019   2.420  -3.182  0.00  0.00    -0.082 A 
ATOM      4  C2  PXY d   1      -0.455   3.651  -2.968  0.00  0.00     0.003 A 
ATOM      5  C3  PXY d   1      -1.738   3.866  -2.535  0.00  0.00     0.003 A 
ATOM      6  C4  PXY d   1      -2.600   2.814  -2.370  0.00  0.00    -0.082 A 
ATOM      7  C5  PXY d   1      -2.165   1.556  -2.597  0.00  0.00     0.003 A 
ATOM      8  C6  PXY d   1      -0.846   1.356  -2.996  0.00  0.00     0.003 A 
ENDROOT
TORSDOF 0
ENDMDL
