MODEL 1
REMARK minimizedAffinity -4.78885794
REMARK minimizedRMSD -1
REMARK  0 active torsions:
REMARK  status: ('A' for Active; 'I' for Inactive)
ROOT
ATOM      1  C4' PXY d   1       0.747  -0.822   3.047  0.00  0.00     0.077 C 
ATOM      2  C1' PXY d   1      -0.941   1.026  -2.163  0.00  0.00     0.077 C 
ATOM      3  C1  PXY d   1      -0.508   0.547  -0.791  0.00  0.00    -0.082 A 
ATOM      4  C2  PXY d   1       0.757   0.221  -0.581  0.00  0.00     0.003 A 
ATOM      5  C3  PXY d   1       1.159  -0.244   0.645  0.00  0.00     0.003 A 
ATOM      6  C4  PXY d   1       0.268  -0.325   1.681  0.00  0.00    -0.082 A 
ATOM      7  C5  PXY d   1      -1.023   0.016   1.477  0.00  0.00     0.003 A 
ATOM      8  C6  PXY d   1      -1.419   0.446   0.214  0.00  0.00     0.003 A 
ENDROOT
TORSDOF 0
ENDMDL
