MODEL 1
REMARK minimizedAffinity -5.04976273
REMARK minimizedRMSD -1
REMARK  0 active torsions:
REMARK  status: ('A' for Active; 'I' for Inactive)
ROOT
ATOM      1  C4' PXY d   1      -0.115   0.577  -1.691  0.00  0.00     0.077 C 
ATOM      2  C1' PXY d   1       1.652  -1.778   3.283  0.00  0.00     0.077 C 
ATOM      3  C1  PXY d   1       1.176  -1.162   1.982  0.00  0.00    -0.082 A 
ATOM      4  C2  PXY d   1       1.976  -1.161   0.928  0.00  0.00     0.003 A 
ATOM      5  C3  PXY d   1       1.574  -0.580  -0.247  0.00  0.00     0.003 A 
ATOM      6  C4  PXY d   1       0.320  -0.042  -0.360  0.00  0.00    -0.082 A 
ATOM      7  C5  PXY d   1      -0.506  -0.049   0.708  0.00  0.00     0.003 A 
ATOM      8  C6  PXY d   1      -0.063  -0.607   1.904  0.00  0.00     0.003 A 
ENDROOT
TORSDOF 0
ENDMDL
