MODEL 1
REMARK minimizedAffinity -5.1443119
REMARK minimizedRMSD -1
REMARK  0 active torsions:
REMARK  status: ('A' for Active; 'I' for Inactive)
ROOT
ATOM      1  C4' PXY d   1      -0.507   0.238  -1.576  0.00  0.00     0.077 C 
ATOM      2  C1' PXY d   1       2.471  -1.702   2.982  0.00  0.00     0.077 C 
ATOM      3  C1  PXY d   1       1.680  -1.192   1.794  0.00  0.00    -0.082 A 
ATOM      4  C2  PXY d   1       2.062  -1.510   0.568  0.00  0.00     0.003 A 
ATOM      5  C3  PXY d   1       1.376  -1.031  -0.519  0.00  0.00     0.003 A 
ATOM      6  C4  PXY d   1       0.256  -0.262  -0.347  0.00  0.00    -0.082 A 
ATOM      7  C5  PXY d   1      -0.146   0.058   0.901  0.00  0.00     0.003 A 
ATOM      8  C6  PXY d   1       0.588  -0.404   1.990  0.00  0.00     0.003 A 
ENDROOT
TORSDOF 0
ENDMDL
