MODEL 1
REMARK minimizedAffinity -3.53579688
REMARK minimizedRMSD -1
REMARK  0 active torsions:
REMARK  status: ('A' for Active; 'I' for Inactive)
ROOT
ATOM      1  C4' PXY d   1       1.506  -1.358   3.578  0.00  0.00     0.077 C 
ATOM      2  C1' PXY d   1      -1.118   0.309  -1.295  0.00  0.00     0.077 C 
ATOM      3  C1  PXY d   1      -0.440  -0.124  -0.010  0.00  0.00    -0.082 A 
ATOM      4  C2  PXY d   1       0.880  -0.199   0.040  0.00  0.00     0.003 A 
ATOM      5  C3  PXY d   1       1.508  -0.620   1.184  0.00  0.00     0.003 A 
ATOM      6  C4  PXY d   1       0.779  -0.916   2.305  0.00  0.00    -0.082 A 
ATOM      7  C5  PXY d   1      -0.567  -0.832   2.265  0.00  0.00     0.003 A 
ATOM      8  C6  PXY d   1      -1.187  -0.443   1.081  0.00  0.00     0.003 A 
ENDROOT
TORSDOF 0
ENDMDL
