MODEL 1
REMARK minimizedAffinity -2.89282107
REMARK minimizedRMSD -1
REMARK  0 active torsions:
REMARK  status: ('A' for Active; 'I' for Inactive)
ROOT
ATOM      1  C4' PXY d   1      -0.027  -1.671   2.921  0.00  0.00     0.077 C 
ATOM      2  C1' PXY d   1      -1.314   1.063  -2.007  0.00  0.00     0.077 C 
ATOM      3  C1  PXY d   1      -0.987   0.351  -0.709  0.00  0.00    -0.082 A 
ATOM      4  C2  PXY d   1       0.261  -0.008  -0.456  0.00  0.00     0.003 A 
ATOM      5  C3  PXY d   1       0.569  -0.681   0.698  0.00  0.00     0.003 A 
ATOM      6  C4  PXY d   1      -0.402  -0.942   1.628  0.00  0.00    -0.082 A 
ATOM      7  C5  PXY d   1      -1.676  -0.569   1.382  0.00  0.00     0.003 A 
ATOM      8  C6  PXY d   1      -1.975   0.076   0.186  0.00  0.00     0.003 A 
ENDROOT
TORSDOF 0
ENDMDL
