MODEL 1
REMARK minimizedAffinity -4.68591404
REMARK minimizedRMSD -1
REMARK  0 active torsions:
REMARK  status: ('A' for Active; 'I' for Inactive)
ROOT
ATOM      1  C4' PXY d   1       1.795  -0.488   3.020  0.00  0.00     0.077 C 
ATOM      2  C1' PXY d   1      -1.229   0.449  -1.817  0.00  0.00     0.077 C 
ATOM      3  C1  PXY d   1      -0.446   0.208  -0.541  0.00  0.00    -0.082 A 
ATOM      4  C2  PXY d   1       0.874   0.135  -0.588  0.00  0.00     0.003 A 
ATOM      5  C3  PXY d   1       1.596  -0.115   0.551  0.00  0.00     0.003 A 
ATOM      6  C4  PXY d   1       0.964  -0.237   1.759  0.00  0.00    -0.082 A 
ATOM      7  C5  PXY d   1      -0.382  -0.152   1.817  0.00  0.00     0.003 A 
ATOM      8  C6  PXY d   1      -1.100   0.060   0.643  0.00  0.00     0.003 A 
ENDROOT
TORSDOF 0
ENDMDL
