MODEL 1
REMARK minimizedAffinity -1.29125011
REMARK minimizedRMSD -1
REMARK  0 active torsions:
REMARK  status: ('A' for Active; 'I' for Inactive)
ROOT
ATOM      1  C   UNL d   1      -1.523   1.967   0.194  0.00  0.00     0.020 A 
ATOM      2  C1  UNL d   1      -1.220   2.161   1.542  0.00  0.00     0.020 A 
ATOM      3  C2  UNL d   1      -0.439   1.225   2.223  0.00  0.00     0.034 A 
ATOM      4  C3  UNL d   1       0.042   0.091   1.558  0.00  0.00     0.017 A 
ATOM      5  C4  UNL d   1      -0.263  -0.103   0.206  0.00  0.00     0.017 A 
ATOM      6  C5  UNL d   1      -1.045   0.837  -0.472  0.00  0.00     0.034 A 
ATOM      7 Cl   UNL d   1       0.294  -1.477  -0.682  0.00  0.00    -0.070 Cl
ATOM      8 Cl1  UNL d   1       1.002  -1.025   2.463  0.00  0.00    -0.070 Cl
ENDROOT
TORSDOF 0
ENDMDL
