MODEL 1
REMARK minimizedAffinity -3.77880287
REMARK minimizedRMSD -1
REMARK  0 active torsions:
REMARK  status: ('A' for Active; 'I' for Inactive)
ROOT
ATOM      1  C   UNL d   1      -0.835   2.947   1.498  0.00  0.00     0.020 A 
ATOM      2  C1  UNL d   1      -1.111   2.970   0.132  0.00  0.00     0.020 A 
ATOM      3  C2  UNL d   1      -0.932   1.817  -0.636  0.00  0.00     0.034 A 
ATOM      4  C3  UNL d   1      -0.477   0.636  -0.038  0.00  0.00     0.017 A 
ATOM      5  C4  UNL d   1      -0.201   0.614   1.334  0.00  0.00     0.017 A 
ATOM      6  C5  UNL d   1      -0.381   1.771   2.098  0.00  0.00     0.034 A 
ATOM      7 Cl   UNL d   1       0.364  -0.805   2.143  0.00  0.00    -0.070 Cl
ATOM      8 Cl1  UNL d   1      -0.280  -0.752  -1.047  0.00  0.00    -0.070 Cl
ENDROOT
TORSDOF 0
ENDMDL
