MODEL 1
REMARK minimizedAffinity -5.71804571
REMARK minimizedRMSD -1
REMARK  0 active torsions:
REMARK  status: ('A' for Active; 'I' for Inactive)
ROOT
ATOM      1  C   UNL d   1      -1.124   2.866  -0.780  0.00  0.00     0.020 A 
ATOM      2  C1  UNL d   1      -1.108   2.889   0.614  0.00  0.00     0.020 A 
ATOM      3  C2  UNL d   1      -0.550   1.823   1.323  0.00  0.00     0.034 A 
ATOM      4  C3  UNL d   1      -0.006   0.730   0.639  0.00  0.00     0.017 A 
ATOM      5  C4  UNL d   1      -0.022   0.708  -0.760  0.00  0.00     0.017 A 
ATOM      6  C5  UNL d   1      -0.582   1.778  -1.466  0.00  0.00     0.034 A 
ATOM      7 Cl   UNL d   1       0.630  -0.606  -1.674  0.00  0.00    -0.070 Cl
ATOM      8 Cl1  UNL d   1       0.668  -0.553   1.580  0.00  0.00    -0.070 Cl
ENDROOT
TORSDOF 0
ENDMDL
