MODEL 1
REMARK minimizedAffinity -5.09721994
REMARK minimizedRMSD -1
REMARK  0 active torsions:
REMARK  status: ('A' for Active; 'I' for Inactive)
ROOT
ATOM      1  C   UNL d   1      -0.796   3.100   0.951  0.00  0.00     0.020 A 
ATOM      2  C1  UNL d   1      -0.735   3.036  -0.441  0.00  0.00     0.020 A 
ATOM      3  C2  UNL d   1      -0.389   1.838  -1.070  0.00  0.00     0.034 A 
ATOM      4  C3  UNL d   1      -0.102   0.700  -0.308  0.00  0.00     0.017 A 
ATOM      5  C4  UNL d   1      -0.163   0.766   1.089  0.00  0.00     0.017 A 
ATOM      6  C5  UNL d   1      -0.510   1.967   1.714  0.00  0.00     0.034 A 
ATOM      7 Cl   UNL d   1       0.178  -0.597   2.096  0.00  0.00    -0.070 Cl
ATOM      8 Cl1  UNL d   1       0.319  -0.747  -1.153  0.00  0.00    -0.070 Cl
ENDROOT
TORSDOF 0
ENDMDL
