MODEL 1
REMARK minimizedAffinity -5.71167564
REMARK minimizedRMSD -1
REMARK  0 active torsions:
REMARK  status: ('A' for Active; 'I' for Inactive)
ROOT
ATOM      1  C   UNL d   1      -0.650   3.432  -0.415  0.00  0.00     0.020 A 
ATOM      2  C1  UNL d   1      -0.706   3.451   0.978  0.00  0.00     0.020 A 
ATOM      3  C2  UNL d   1      -0.294   2.334   1.708  0.00  0.00     0.034 A 
ATOM      4  C3  UNL d   1       0.176   1.194   1.046  0.00  0.00     0.017 A 
ATOM      5  C4  UNL d   1       0.231   1.176  -0.352  0.00  0.00     0.017 A 
ATOM      6  C5  UNL d   1      -0.182   2.297  -1.079  0.00  0.00     0.034 A 
ATOM      7 Cl   UNL d   1       0.799  -0.195  -1.239  0.00  0.00    -0.070 Cl
ATOM      8 Cl1  UNL d   1       0.669  -0.150   2.013  0.00  0.00    -0.070 Cl
ENDROOT
TORSDOF 0
ENDMDL
