MODEL 1
REMARK minimizedAffinity -5.48546886
REMARK minimizedRMSD -1
REMARK  0 active torsions:
REMARK  status: ('A' for Active; 'I' for Inactive)
ROOT
ATOM      1  C   UNL d   1      -1.089   3.231   1.401  0.00  0.00     0.020 A 
ATOM      2  C1  UNL d   1      -1.170   3.194   0.009  0.00  0.00     0.020 A 
ATOM      3  C2  UNL d   1      -0.759   2.054  -0.685  0.00  0.00     0.034 A 
ATOM      4  C3  UNL d   1      -0.264   0.946   0.013  0.00  0.00     0.017 A 
ATOM      5  C4  UNL d   1      -0.182   0.984   1.409  0.00  0.00     0.017 A 
ATOM      6  C5  UNL d   1      -0.596   2.128   2.099  0.00  0.00     0.034 A 
ATOM      7 Cl   UNL d   1       0.417  -0.344   2.339  0.00  0.00    -0.070 Cl
ATOM      8 Cl1  UNL d   1       0.227  -0.430  -0.910  0.00  0.00    -0.070 Cl
ENDROOT
TORSDOF 0
ENDMDL
