MODEL 1
REMARK minimizedAffinity 3.6595211
REMARK minimizedRMSD -1
REMARK  2 active torsions:
REMARK  status: ('A' for Active; 'I' for Inactive)
REMARK    1  A    between atoms: C2'_3  and  C1'_4 
REMARK    2  A    between atoms: C1'_4  and  C1_5 
ROOT
ATOM      1  C1  I4B d   1      -1.040   0.783  -1.085  0.00  0.00    -0.075 A 
ATOM      2  C2  I4B d   1      -2.060  -0.109  -1.308  0.00  0.00     0.003 A 
ATOM      3  C3  I4B d   1      -1.770  -1.445  -1.676  0.00  0.00     0.002 A 
ATOM      4  C4  I4B d   1      -0.458  -1.831  -1.857  0.00  0.00    -0.004 A 
ATOM      5  C5  I4B d   1       0.575  -0.932  -1.608  0.00  0.00     0.002 A 
ATOM      6  C6  I4B d   1       0.283   0.380  -1.207  0.00  0.00     0.003 A 
ENDROOT
BRANCH   1   7
ATOM      7  C1' I4B d   1      -1.382   2.195  -0.730  0.00  0.00     0.060 C 
BRANCH   7   8
ATOM      8  C2' I4B d   1      -0.138   2.848  -0.162  0.00  0.00    -0.013 C 
ATOM      9  C4' I4B d   1       0.047   4.238  -0.712  0.00  0.00     0.013 C 
ATOM     10  C3' I4B d   1      -0.268   2.869   1.332  0.00  0.00     0.013 C 
ENDBRANCH   7   8
ENDBRANCH   1   7
TORSDOF 2
ENDMDL
