MODEL 1
REMARK minimizedAffinity -1.31839788
REMARK minimizedRMSD -1
REMARK  2 active torsions:
REMARK  status: ('A' for Active; 'I' for Inactive)
REMARK    1  A    between atoms: C2'_3  and  C1'_4 
REMARK    2  A    between atoms: C1'_4  and  C1_5 
ROOT
ATOM      1  C1  I4B d   1       3.938  -2.312  -1.264  0.00  0.00    -0.075 A 
ATOM      2  C2  I4B d   1       5.287  -2.499  -1.096  0.00  0.00     0.003 A 
ATOM      3  C3  I4B d   1       5.918  -2.094   0.105  0.00  0.00     0.002 A 
ATOM      4  C4  I4B d   1       5.176  -1.466   1.085  0.00  0.00    -0.004 A 
ATOM      5  C5  I4B d   1       3.804  -1.299   0.922  0.00  0.00     0.002 A 
ATOM      6  C6  I4B d   1       3.178  -1.736  -0.254  0.00  0.00     0.003 A 
ENDROOT
BRANCH   1   7
ATOM      7  C1' I4B d   1       3.310  -2.721  -2.559  0.00  0.00     0.060 C 
BRANCH   7   8
ATOM      8  C2' I4B d   1       2.959  -4.192  -2.463  0.00  0.00    -0.013 C 
ATOM      9  C4' I4B d   1       4.149  -5.009  -2.032  0.00  0.00     0.013 C 
ATOM     10  C3' I4B d   1       1.824  -4.336  -1.494  0.00  0.00     0.013 C 
ENDBRANCH   7   8
ENDBRANCH   1   7
TORSDOF 2
ENDMDL
