MODEL 1
REMARK minimizedAffinity 14.5879946
REMARK minimizedRMSD -1
REMARK  2 active torsions:
REMARK  status: ('A' for Active; 'I' for Inactive)
REMARK    1  A    between atoms: C2'_3  and  C1'_4 
REMARK    2  A    between atoms: C1'_4  and  C1_5 
ROOT
ATOM      1  C1  I4B d   1      -2.227   4.444  -1.668  0.00  0.00    -0.075 A 
ATOM      2  C2  I4B d   1      -1.430   3.401  -1.266  0.00  0.00     0.003 A 
ATOM      3  C3  I4B d   1      -0.123   3.649  -0.780  0.00  0.00     0.002 A 
ATOM      4  C4  I4B d   1       0.361   4.942  -0.760  0.00  0.00    -0.004 A 
ATOM      5  C5  I4B d   1      -0.458   6.000  -1.146  0.00  0.00     0.002 A 
ATOM      6  C6  I4B d   1      -1.764   5.751  -1.591  0.00  0.00     0.003 A 
ENDROOT
BRANCH   1   7
ATOM      7  C1' I4B d   1      -3.590   4.143  -2.206  0.00  0.00     0.060 C 
BRANCH   7   8
ATOM      8  C2' I4B d   1      -4.562   4.144  -1.044  0.00  0.00    -0.013 C 
ATOM      9  C4' I4B d   1      -5.505   5.316  -1.123  0.00  0.00     0.013 C 
ATOM     10  C3' I4B d   1      -5.310   2.844  -1.066  0.00  0.00     0.013 C 
ENDBRANCH   7   8
ENDBRANCH   1   7
TORSDOF 2
ENDMDL
