MODEL 1
REMARK minimizedAffinity -3.95018649
REMARK minimizedRMSD -1
REMARK  0 active torsions:
REMARK  status: ('A' for Active; 'I' for Inactive)
ROOT
ATOM      1  C   UNL d   1      -2.039  -0.158   3.220  0.00  0.00     0.023 A 
ATOM      2  C1  UNL d   1      -2.658   0.179   2.016  0.00  0.00     0.003 A 
ATOM      3  C2  UNL d   1      -1.903   0.282   0.846  0.00  0.00     0.048 A 
ATOM      4  C3  UNL d   1      -0.529   0.045   0.887  0.00  0.00     0.023 A 
ATOM      5  C4  UNL d   1       0.094  -0.294   2.089  0.00  0.00     0.048 A 
ATOM      6  C5  UNL d   1      -0.665  -0.395   3.256  0.00  0.00     0.003 A 
ATOM      7  I   UNL d   1       0.597   0.197  -0.853  0.00  0.00    -0.146 I 
ENDROOT
TORSDOF 0
ENDMDL
