MODEL 1
REMARK minimizedAffinity 0.640649199
REMARK minimizedRMSD -1
REMARK  0 active torsions:
REMARK  status: ('A' for Active; 'I' for Inactive)
ROOT
ATOM      1  C   UNL d   1      -1.190   0.052  -0.318  0.00  0.00     0.023 A 
ATOM      2  C1  UNL d   1       0.050   0.692  -0.300  0.00  0.00     0.003 A 
ATOM      3  C2  UNL d   1       1.051   0.302  -1.191  0.00  0.00     0.048 A 
ATOM      4  C3  UNL d   1       0.806  -0.728  -2.099  0.00  0.00     0.023 A 
ATOM      5  C4  UNL d   1      -0.433  -1.370  -2.122  0.00  0.00     0.048 A 
ATOM      6  C5  UNL d   1      -1.431  -0.977  -1.228  0.00  0.00     0.003 A 
ATOM      7  I   UNL d   1       2.295  -1.310  -3.428  0.00  0.00    -0.146 I 
ENDROOT
TORSDOF 0
ENDMDL
