MODEL 1
REMARK minimizedAffinity -1.2947222
REMARK minimizedRMSD -1
REMARK  0 active torsions:
REMARK  status: ('A' for Active; 'I' for Inactive)
ROOT
ATOM      1  C   UNL d   1       0.014  -2.583  -3.361  0.00  0.00     0.023 A 
ATOM      2  C1  UNL d   1      -1.076  -2.274  -2.547  0.00  0.00     0.003 A 
ATOM      3  C2  UNL d   1      -0.928  -1.374  -1.490  0.00  0.00     0.048 A 
ATOM      4  C3  UNL d   1       0.314  -0.786  -1.252  0.00  0.00     0.023 A 
ATOM      5  C4  UNL d   1       1.407  -1.091  -2.064  0.00  0.00     0.048 A 
ATOM      6  C5  UNL d   1       1.254  -1.992  -3.119  0.00  0.00     0.003 A 
ATOM      7  I   UNL d   1       0.537   0.554   0.320  0.00  0.00    -0.146 I 
ENDROOT
TORSDOF 0
ENDMDL
