MODEL 1
REMARK minimizedAffinity 0.741440892
REMARK minimizedRMSD -1
REMARK  0 active torsions:
REMARK  status: ('A' for Active; 'I' for Inactive)
ROOT
ATOM      1  C   UNL d   1       0.511   0.552   1.315  0.00  0.00     0.023 A 
ATOM      2  C1  UNL d   1       1.224  -0.637   1.159  0.00  0.00     0.003 A 
ATOM      3  C2  UNL d   1       1.233  -1.291  -0.074  0.00  0.00     0.048 A 
ATOM      4  C3  UNL d   1       0.529  -0.750  -1.149  0.00  0.00     0.023 A 
ATOM      5  C4  UNL d   1      -0.185   0.440  -0.999  0.00  0.00     0.048 A 
ATOM      6  C5  UNL d   1      -0.192   1.090   0.237  0.00  0.00     0.003 A 
ATOM      7  I   UNL d   1       0.542  -1.721  -2.986  0.00  0.00    -0.146 I 
ENDROOT
TORSDOF 0
ENDMDL
