MODEL 1
REMARK minimizedAffinity -1.5690515
REMARK minimizedRMSD -1
REMARK  0 active torsions:
REMARK  status: ('A' for Active; 'I' for Inactive)
ROOT
ATOM      1  C   UNL d   1       0.287   0.631   1.187  0.00  0.00     0.023 A 
ATOM      2  C1  UNL d   1       1.424  -0.174   1.232  0.00  0.00     0.003 A 
ATOM      3  C2  UNL d   1       1.854  -0.842   0.083  0.00  0.00     0.048 A 
ATOM      4  C3  UNL d   1       1.143  -0.697  -1.108  0.00  0.00     0.023 A 
ATOM      5  C4  UNL d   1       0.004   0.109  -1.157  0.00  0.00     0.048 A 
ATOM      6  C5  UNL d   1      -0.423   0.773  -0.006  0.00  0.00     0.003 A 
ATOM      7  I   UNL d   1       1.781  -1.689  -2.819  0.00  0.00    -0.146 I 
ENDROOT
TORSDOF 0
ENDMDL
