MODEL 1
REMARK minimizedAffinity -2.02572799
REMARK minimizedRMSD -1
REMARK  0 active torsions:
REMARK  status: ('A' for Active; 'I' for Inactive)
ROOT
ATOM      1  C   UNL d   1      -0.506   0.638   2.267  0.00  0.00     0.023 A 
ATOM      2  C1  UNL d   1      -1.326   0.934   1.178  0.00  0.00     0.003 A 
ATOM      3  C2  UNL d   1      -0.889   0.662  -0.120  0.00  0.00     0.048 A 
ATOM      4  C3  UNL d   1       0.367   0.092  -0.322  0.00  0.00     0.023 A 
ATOM      5  C4  UNL d   1       1.190  -0.207   0.765  0.00  0.00     0.048 A 
ATOM      6  C5  UNL d   1       0.750   0.068   2.061  0.00  0.00     0.003 A 
ATOM      7  I   UNL d   1       1.019  -0.314  -2.254  0.00  0.00    -0.146 I 
ENDROOT
TORSDOF 0
ENDMDL
