MODEL 1
REMARK minimizedAffinity 7.38389492
REMARK minimizedRMSD -1
REMARK  0 active torsions:
REMARK  status: ('A' for Active; 'I' for Inactive)
ROOT
ATOM      1  C   UNL d   1       1.427  -0.825   0.497  0.00  0.00     0.023 A 
ATOM      2  C1  UNL d   1       0.981  -1.079   1.795  0.00  0.00     0.003 A 
ATOM      3  C2  UNL d   1       0.718  -0.017   2.663  0.00  0.00     0.048 A 
ATOM      4  C3  UNL d   1       0.901   1.294   2.228  0.00  0.00     0.023 A 
ATOM      5  C4  UNL d   1       1.346   1.553   0.930  0.00  0.00     0.048 A 
ATOM      6  C5  UNL d   1       1.609   0.488   0.066  0.00  0.00     0.003 A 
ATOM      7  I   UNL d   1       0.510   2.876   3.519  0.00  0.00    -0.146 I 
ENDROOT
TORSDOF 0
ENDMDL
