MODEL 1
REMARK minimizedAffinity -1.84047627
REMARK minimizedRMSD -1
REMARK  0 active torsions:
REMARK  status: ('A' for Active; 'I' for Inactive)
ROOT
ATOM      1  C   UNL d   1       1.140  -1.833  -3.963  0.00  0.00     0.023 A 
ATOM      2  C1  UNL d   1       0.320  -2.342  -2.955  0.00  0.00     0.003 A 
ATOM      3  C2  UNL d   1       0.179  -1.648  -1.751  0.00  0.00     0.048 A 
ATOM      4  C3  UNL d   1       0.860  -0.446  -1.562  0.00  0.00     0.023 A 
ATOM      5  C4  UNL d   1       1.681   0.067  -2.568  0.00  0.00     0.048 A 
ATOM      6  C5  UNL d   1       1.819  -0.631  -3.769  0.00  0.00     0.003 A 
ATOM      7  I   UNL d   1       0.652   0.588   0.229  0.00  0.00    -0.146 I 
ENDROOT
TORSDOF 0
ENDMDL
