MODEL 1
REMARK minimizedAffinity -4.0475564
REMARK minimizedRMSD -1
REMARK  0 active torsions:
REMARK  status: ('A' for Active; 'I' for Inactive)
ROOT
ATOM      1  C   UNL d   1      -2.982   0.288   1.848  0.00  0.00     0.023 A 
ATOM      2  C1  UNL d   1      -2.794   0.687   0.525  0.00  0.00     0.003 A 
ATOM      3  C2  UNL d   1      -1.505   0.757  -0.008  0.00  0.00     0.048 A 
ATOM      4  C3  UNL d   1      -0.409   0.427   0.787  0.00  0.00     0.023 A 
ATOM      5  C4  UNL d   1      -0.592   0.027   2.112  0.00  0.00     0.048 A 
ATOM      6  C5  UNL d   1      -1.882  -0.041   2.641  0.00  0.00     0.003 A 
ATOM      7  I   UNL d   1       1.510   0.532  -0.004  0.00  0.00    -0.146 I 
ENDROOT
TORSDOF 0
ENDMDL
