MODEL 1
REMARK minimizedAffinity -0.598559201
REMARK minimizedRMSD -1
REMARK  0 active torsions:
REMARK  status: ('A' for Active; 'I' for Inactive)
ROOT
ATOM      1  C   UNL d   1      -1.768   0.397   3.086  0.00  0.00     0.023 A 
ATOM      2  C1  UNL d   1      -2.226  -0.615   2.243  0.00  0.00     0.003 A 
ATOM      3  C2  UNL d   1      -1.370  -1.173   1.291  0.00  0.00     0.048 A 
ATOM      4  C3  UNL d   1      -0.057  -0.715   1.189  0.00  0.00     0.023 A 
ATOM      5  C4  UNL d   1       0.406   0.297   2.031  0.00  0.00     0.048 A 
ATOM      6  C5  UNL d   1      -0.453   0.852   2.981  0.00  0.00     0.003 A 
ATOM      7  I   UNL d   1       1.219  -1.544  -0.227  0.00  0.00    -0.146 I 
ENDROOT
TORSDOF 0
ENDMDL
