MODEL 1
REMARK minimizedAffinity -3.50536513
REMARK minimizedRMSD -1
REMARK  0 active torsions:
REMARK  status: ('A' for Active; 'I' for Inactive)
ROOT
ATOM      1  C   UNL d   1      -0.794   0.874  -1.221  0.00  0.00     0.023 A 
ATOM      2  C1  UNL d   1      -2.044   0.850  -0.601  0.00  0.00     0.003 A 
ATOM      3  C2  UNL d   1      -2.140   0.605   0.771  0.00  0.00     0.048 A 
ATOM      4  C3  UNL d   1      -0.982   0.385   1.516  0.00  0.00     0.023 A 
ATOM      5  C4  UNL d   1       0.271   0.409   0.901  0.00  0.00     0.048 A 
ATOM      6  C5  UNL d   1       0.361   0.654  -0.471  0.00  0.00     0.003 A 
ATOM      7  I   UNL d   1      -1.122   0.020   3.558  0.00  0.00    -0.146 I 
ENDROOT
TORSDOF 0
ENDMDL
