MODEL 1
REMARK minimizedAffinity -2.28523445
REMARK minimizedRMSD -1
REMARK  0 active torsions:
REMARK  status: ('A' for Active; 'I' for Inactive)
ROOT
ATOM      1  C   UNL d   1      -2.570  -0.490   1.239  0.00  0.00     0.023 A 
ATOM      2  C1  UNL d   1      -2.058  -0.745   2.512  0.00  0.00     0.003 A 
ATOM      3  C2  UNL d   1      -0.705  -0.526   2.777  0.00  0.00     0.048 A 
ATOM      4  C3  UNL d   1       0.130  -0.051   1.766  0.00  0.00     0.023 A 
ATOM      5  C4  UNL d   1      -0.378   0.205   0.492  0.00  0.00     0.048 A 
ATOM      6  C5  UNL d   1      -1.731  -0.016   0.231  0.00  0.00     0.003 A 
ATOM      7  I   UNL d   1       2.145   0.276   2.159  0.00  0.00    -0.146 I 
ENDROOT
TORSDOF 0
ENDMDL
