MODEL 1
REMARK minimizedAffinity -4.28260088
REMARK minimizedRMSD -1
REMARK  0 active torsions:
REMARK  status: ('A' for Active; 'I' for Inactive)
ROOT
ATOM      1  C   UNL d   1      -2.661  -0.242   2.837  0.00  0.00     0.023 A 
ATOM      2  C1  UNL d   1      -2.804  -0.149   1.453  0.00  0.00     0.003 A 
ATOM      3  C2  UNL d   1      -1.674  -0.147   0.632  0.00  0.00     0.048 A 
ATOM      4  C3  UNL d   1      -0.405  -0.241   1.202  0.00  0.00     0.023 A 
ATOM      5  C4  UNL d   1      -0.258  -0.336   2.587  0.00  0.00     0.048 A 
ATOM      6  C5  UNL d   1      -1.390  -0.336   3.403  0.00  0.00     0.003 A 
ATOM      7  I   UNL d   1       1.278  -0.240  -0.018  0.00  0.00    -0.146 I 
ENDROOT
TORSDOF 0
ENDMDL
