MODEL 1
REMARK minimizedAffinity -2.4441154
REMARK minimizedRMSD -1
REMARK  0 active torsions:
REMARK  status: ('A' for Active; 'I' for Inactive)
ROOT
ATOM      1  C   UNL d   1       2.273  -1.013   0.698  0.00  0.00     0.023 A 
ATOM      2  C1  UNL d   1       1.974   0.339   0.865  0.00  0.00     0.003 A 
ATOM      3  C2  UNL d   1       0.645   0.767   0.861  0.00  0.00     0.048 A 
ATOM      4  C3  UNL d   1      -0.380  -0.162   0.690  0.00  0.00     0.023 A 
ATOM      5  C4  UNL d   1      -0.086  -1.517   0.523  0.00  0.00     0.048 A 
ATOM      6  C5  UNL d   1       1.245  -1.940   0.527  0.00  0.00     0.003 A 
ATOM      7  I   UNL d   1      -2.359   0.472   0.683  0.00  0.00    -0.146 I 
ENDROOT
TORSDOF 0
ENDMDL
