MODEL 1
REMARK minimizedAffinity 5.7104125
REMARK minimizedRMSD -1
REMARK  0 active torsions:
REMARK  status: ('A' for Active; 'I' for Inactive)
ROOT
ATOM      1  C   UNL d   1       0.994   0.722   3.212  0.00  0.00     0.078 C 
ATOM      2  C1  UNL d   1       1.848   0.724   1.979  0.00  0.00    -0.077 A 
ATOM      3  C2  UNL d   1       1.753   1.756   1.038  0.00  0.00    -0.001 A 
ATOM      4  C3  UNL d   1       2.548   1.740  -0.110  0.00  0.00     0.003 A 
ATOM      5  C4  UNL d   1       3.442   0.693  -0.327  0.00  0.00    -0.005 A 
ATOM      6  C5  UNL d   1       3.541  -0.339   0.603  0.00  0.00     0.003 A 
ATOM      7  C6  UNL d   1       2.748  -0.325   1.751  0.00  0.00    -0.001 A 
ENDROOT
TORSDOF 0
ENDMDL
