MODEL 1
REMARK minimizedAffinity 4.39936543
REMARK minimizedRMSD -1
REMARK  0 active torsions:
REMARK  status: ('A' for Active; 'I' for Inactive)
ROOT
ATOM      1  C   UNL d   1       2.689   1.518  -2.707  0.00  0.00     0.078 C 
ATOM      2  C1  UNL d   1       2.824   1.299  -1.230  0.00  0.00    -0.077 A 
ATOM      3  C2  UNL d   1       1.928   1.887  -0.329  0.00  0.00    -0.001 A 
ATOM      4  C3  UNL d   1       2.071   1.682   1.044  0.00  0.00     0.003 A 
ATOM      5  C4  UNL d   1       3.111   0.890   1.529  0.00  0.00    -0.005 A 
ATOM      6  C5  UNL d   1       4.009   0.303   0.640  0.00  0.00     0.003 A 
ATOM      7  C6  UNL d   1       3.867   0.506  -0.733  0.00  0.00    -0.001 A 
ENDROOT
TORSDOF 0
ENDMDL
