MODEL 1
REMARK minimizedAffinity 8.23531055
REMARK minimizedRMSD -1
REMARK  0 active torsions:
REMARK  status: ('A' for Active; 'I' for Inactive)
ROOT
ATOM      1  C   UNL d   1      -6.000  -2.967  -4.609  0.00  0.00     0.078 C 
ATOM      2  C1  UNL d   1      -5.305  -3.701  -3.500  0.00  0.00    -0.077 A 
ATOM      3  C2  UNL d   1      -4.105  -3.223  -2.960  0.00  0.00    -0.001 A 
ATOM      4  C3  UNL d   1      -3.465  -3.921  -1.935  0.00  0.00     0.003 A 
ATOM      5  C4  UNL d   1      -4.016  -5.102  -1.443  0.00  0.00    -0.005 A 
ATOM      6  C5  UNL d   1      -5.208  -5.587  -1.976  0.00  0.00     0.003 A 
ATOM      7  C6  UNL d   1      -5.850  -4.890  -3.001  0.00  0.00    -0.001 A 
ENDROOT
TORSDOF 0
ENDMDL
