MODEL 1
REMARK minimizedAffinity 11.4148626
REMARK minimizedRMSD -1
REMARK  0 active torsions:
REMARK  status: ('A' for Active; 'I' for Inactive)
ROOT
ATOM      1  C   UNL d   1       1.963   5.994  -5.609  0.00  0.00     0.078 C 
ATOM      2  C1  UNL d   1       3.365   5.816  -5.108  0.00  0.00    -0.077 A 
ATOM      3  C2  UNL d   1       3.616   5.484  -3.771  0.00  0.00    -0.001 A 
ATOM      4  C3  UNL d   1       4.927   5.331  -3.317  0.00  0.00     0.003 A 
ATOM      5  C4  UNL d   1       5.996   5.509  -4.192  0.00  0.00    -0.005 A 
ATOM      6  C5  UNL d   1       5.756   5.842  -5.523  0.00  0.00     0.003 A 
ATOM      7  C6  UNL d   1       4.446   5.995  -5.980  0.00  0.00    -0.001 A 
ENDROOT
TORSDOF 0
ENDMDL
