MODEL 1
REMARK minimizedAffinity 3.05369616
REMARK minimizedRMSD -1
REMARK  0 active torsions:
REMARK  status: ('A' for Active; 'I' for Inactive)
ROOT
ATOM      1  C   UNL d   1      -0.834  -2.390   0.844  0.00  0.00     0.078 C 
ATOM      2  C1  UNL d   1      -1.549  -3.648   1.237  0.00  0.00    -0.077 A 
ATOM      3  C2  UNL d   1      -0.875  -4.689   1.886  0.00  0.00    -0.001 A 
ATOM      4  C3  UNL d   1      -1.552  -5.858   2.237  0.00  0.00     0.003 A 
ATOM      5  C4  UNL d   1      -2.906  -5.998   1.942  0.00  0.00    -0.005 A 
ATOM      6  C5  UNL d   1      -3.586  -4.968   1.294  0.00  0.00     0.003 A 
ATOM      7  C6  UNL d   1      -2.910  -3.798   0.942  0.00  0.00    -0.001 A 
ENDROOT
TORSDOF 0
ENDMDL
