MODEL 1
REMARK minimizedAffinity 15.3185844
REMARK minimizedRMSD -1
REMARK  0 active torsions:
REMARK  status: ('A' for Active; 'I' for Inactive)
ROOT
ATOM      1  C   UNL d   1      -1.326  -3.045  -5.999  0.00  0.00     0.078 C 
ATOM      2  C1  UNL d   1      -1.756  -3.084  -4.563  0.00  0.00    -0.077 A 
ATOM      3  C2  UNL d   1      -1.886  -1.906  -3.817  0.00  0.00    -0.001 A 
ATOM      4  C3  UNL d   1      -2.278  -1.957  -2.479  0.00  0.00     0.003 A 
ATOM      5  C4  UNL d   1      -2.541  -3.185  -1.873  0.00  0.00    -0.005 A 
ATOM      6  C5  UNL d   1      -2.412  -4.362  -2.607  0.00  0.00     0.003 A 
ATOM      7  C6  UNL d   1      -2.020  -4.313  -3.945  0.00  0.00    -0.001 A 
ENDROOT
TORSDOF 0
ENDMDL
