MODEL 1
REMARK minimizedAffinity 14.1667204
REMARK minimizedRMSD -1
REMARK  0 active torsions:
REMARK  status: ('A' for Active; 'I' for Inactive)
ROOT
ATOM      1  C   UNL d   1      -2.071  -5.999  -1.853  0.00  0.00     0.078 C 
ATOM      2  C1  UNL d   1      -3.384  -5.358  -2.193  0.00  0.00    -0.077 A 
ATOM      3  C2  UNL d   1      -3.435  -4.115  -2.835  0.00  0.00    -0.001 A 
ATOM      4  C3  UNL d   1      -4.664  -3.526  -3.137  0.00  0.00     0.003 A 
ATOM      5  C4  UNL d   1      -5.851  -4.173  -2.800  0.00  0.00    -0.005 A 
ATOM      6  C5  UNL d   1      -5.810  -5.410  -2.159  0.00  0.00     0.003 A 
ATOM      7  C6  UNL d   1      -4.582  -6.000  -1.856  0.00  0.00    -0.001 A 
ENDROOT
TORSDOF 0
ENDMDL
