MODEL 1
REMARK minimizedAffinity 6.49768019
REMARK minimizedRMSD -1
REMARK  0 active torsions:
REMARK  status: ('A' for Active; 'I' for Inactive)
ROOT
ATOM      1  C   UNL d   1      -1.767  -3.313   1.855  0.00  0.00     0.078 C 
ATOM      2  C1  UNL d   1      -1.789  -2.991   0.391  0.00  0.00    -0.077 A 
ATOM      3  C2  UNL d   1      -2.993  -2.967  -0.324  0.00  0.00    -0.001 A 
ATOM      4  C3  UNL d   1      -2.999  -2.675  -1.689  0.00  0.00     0.003 A 
ATOM      5  C4  UNL d   1      -1.803  -2.407  -2.351  0.00  0.00    -0.005 A 
ATOM      6  C5  UNL d   1      -0.599  -2.431  -1.649  0.00  0.00     0.003 A 
ATOM      7  C6  UNL d   1      -0.592  -2.723  -0.284  0.00  0.00    -0.001 A 
ENDROOT
TORSDOF 0
ENDMDL
