MODEL 1
REMARK minimizedAffinity 1.34854817
REMARK minimizedRMSD -1
REMARK  0 active torsions:
REMARK  status: ('A' for Active; 'I' for Inactive)
ROOT
ATOM      1  C   UNL d   1      -2.713  -2.584  -2.323  0.00  0.00     0.078 C 
ATOM      2  C1  UNL d   1      -2.603  -3.300  -1.010  0.00  0.00    -0.077 A 
ATOM      3  C2  UNL d   1      -1.807  -2.792   0.024  0.00  0.00    -0.001 A 
ATOM      4  C3  UNL d   1      -1.706  -3.473   1.238  0.00  0.00     0.003 A 
ATOM      5  C4  UNL d   1      -2.398  -4.668   1.429  0.00  0.00    -0.005 A 
ATOM      6  C5  UNL d   1      -3.190  -5.183   0.405  0.00  0.00     0.003 A 
ATOM      7  C6  UNL d   1      -3.292  -4.502  -0.810  0.00  0.00    -0.001 A 
ENDROOT
TORSDOF 0
ENDMDL
