MODEL 1
REMARK minimizedAffinity 9.2928524
REMARK minimizedRMSD -1
REMARK  0 active torsions:
REMARK  status: ('A' for Active; 'I' for Inactive)
ROOT
ATOM      1  C   UNL d   1      -2.355  -2.014  -2.624  0.00  0.00     0.078 C 
ATOM      2  C1  UNL d   1      -2.231  -2.433  -1.190  0.00  0.00    -0.077 A 
ATOM      3  C2  UNL d   1      -1.002  -2.366  -0.523  0.00  0.00    -0.001 A 
ATOM      4  C3  UNL d   1      -0.898  -2.769   0.809  0.00  0.00     0.003 A 
ATOM      5  C4  UNL d   1      -2.020  -3.244   1.486  0.00  0.00    -0.005 A 
ATOM      6  C5  UNL d   1      -3.247  -3.316   0.829  0.00  0.00     0.003 A 
ATOM      7  C6  UNL d   1      -3.353  -2.914  -0.503  0.00  0.00    -0.001 A 
ENDROOT
TORSDOF 0
ENDMDL
