MODEL 1
REMARK minimizedAffinity 3.26041269
REMARK minimizedRMSD -1
REMARK  0 active torsions:
REMARK  status: ('A' for Active; 'I' for Inactive)
ROOT
ATOM      1  C   UNL d   1       3.391   1.470  -2.376  0.00  0.00     0.078 C 
ATOM      2  C1  UNL d   1       3.311   1.050  -0.939  0.00  0.00    -0.077 A 
ATOM      3  C2  UNL d   1       4.276   0.203  -0.381  0.00  0.00    -0.001 A 
ATOM      4  C3  UNL d   1       4.184  -0.187   0.956  0.00  0.00     0.003 A 
ATOM      5  C4  UNL d   1       3.128   0.263   1.746  0.00  0.00    -0.005 A 
ATOM      6  C5  UNL d   1       2.161   1.104   1.198  0.00  0.00     0.003 A 
ATOM      7  C6  UNL d   1       2.252   1.496  -0.139  0.00  0.00    -0.001 A 
ENDROOT
TORSDOF 0
ENDMDL
