MODEL 1
REMARK minimizedAffinity -1.84051096
REMARK minimizedRMSD -1
REMARK  0 active torsions:
REMARK  status: ('A' for Active; 'I' for Inactive)
ROOT
ATOM      1  C   UNL d   1      -5.993   5.255   0.008  0.00  0.00     0.078 C 
ATOM      2  C1  UNL d   1      -4.886   5.497  -0.974  0.00  0.00    -0.077 A 
ATOM      3  C2  UNL d   1      -3.546   5.486  -0.568  0.00  0.00    -0.001 A 
ATOM      4  C3  UNL d   1      -2.527   5.723  -1.491  0.00  0.00     0.003 A 
ATOM      5  C4  UNL d   1      -2.837   5.973  -2.827  0.00  0.00    -0.005 A 
ATOM      6  C5  UNL d   1      -4.167   5.988  -3.240  0.00  0.00     0.003 A 
ATOM      7  C6  UNL d   1      -5.188   5.752  -2.318  0.00  0.00    -0.001 A 
ENDROOT
TORSDOF 0
ENDMDL
