MODEL 1
REMARK minimizedAffinity 11.3783455
REMARK minimizedRMSD -1
REMARK  0 active torsions:
REMARK  status: ('A' for Active; 'I' for Inactive)
ROOT
ATOM      1  C   UNL d   1      -1.896  -6.000   2.696  0.00  0.00     0.078 C 
ATOM      2  C1  UNL d   1      -1.803  -4.685   1.981  0.00  0.00    -0.077 A 
ATOM      3  C2  UNL d   1      -2.752  -3.679   2.196  0.00  0.00    -0.001 A 
ATOM      4  C3  UNL d   1      -2.659  -2.463   1.516  0.00  0.00     0.003 A 
ATOM      5  C4  UNL d   1      -1.618  -2.243   0.616  0.00  0.00    -0.005 A 
ATOM      6  C5  UNL d   1      -0.670  -3.240   0.394  0.00  0.00     0.003 A 
ATOM      7  C6  UNL d   1      -0.762  -4.456   1.073  0.00  0.00    -0.001 A 
ENDROOT
TORSDOF 0
ENDMDL
