MODEL 1
REMARK minimizedAffinity 5.85391569
REMARK minimizedRMSD -1
REMARK  0 active torsions:
REMARK  status: ('A' for Active; 'I' for Inactive)
ROOT
ATOM      1  C   UNL d   1      -0.476  -5.315  -4.127  0.00  0.00     0.078 C 
ATOM      2  C1  UNL d   1      -1.370  -4.238  -3.588  0.00  0.00    -0.077 A 
ATOM      3  C2  UNL d   1      -1.721  -3.133  -4.373  0.00  0.00    -0.001 A 
ATOM      4  C3  UNL d   1      -2.547  -2.133  -3.855  0.00  0.00     0.003 A 
ATOM      5  C4  UNL d   1      -3.027  -2.229  -2.550  0.00  0.00    -0.005 A 
ATOM      6  C5  UNL d   1      -2.681  -3.324  -1.761  0.00  0.00     0.003 A 
ATOM      7  C6  UNL d   1      -1.855  -4.324  -2.277  0.00  0.00    -0.001 A 
ENDROOT
TORSDOF 0
ENDMDL
