MODEL 1
REMARK minimizedAffinity 5.13881779
REMARK minimizedRMSD -1
REMARK  0 active torsions:
REMARK  status: ('A' for Active; 'I' for Inactive)
ROOT
ATOM      1  C   UNL d   1       2.821   1.235   0.961  0.00  0.00     0.078 C 
ATOM      2  C1  UNL d   1       1.407   1.398   1.433  0.00  0.00    -0.077 A 
ATOM      3  C2  UNL d   1       0.733   0.347   2.067  0.00  0.00    -0.001 A 
ATOM      4  C3  UNL d   1      -0.586   0.509   2.493  0.00  0.00     0.003 A 
ATOM      5  C4  UNL d   1      -1.243   1.721   2.289  0.00  0.00    -0.005 A 
ATOM      6  C5  UNL d   1      -0.582   2.772   1.657  0.00  0.00     0.003 A 
ATOM      7  C6  UNL d   1       0.738   2.611   1.230  0.00  0.00    -0.001 A 
ENDROOT
TORSDOF 0
ENDMDL
