MODEL 1
REMARK minimizedAffinity -3.5127275
REMARK minimizedRMSD -1
REMARK  0 active torsions:
REMARK  status: ('A' for Active; 'I' for Inactive)
ROOT
ATOM      1  C4' PXY d   1      -2.354  -3.444   0.201  0.00  0.00     0.077 C 
ATOM      2  C1' PXY d   1       1.365   0.955  -0.282  0.00  0.00     0.077 C 
ATOM      3  C1  PXY d   1       0.380  -0.191  -0.160  0.00  0.00    -0.082 A 
ATOM      4  C2  PXY d   1       0.589  -1.140   0.738  0.00  0.00     0.003 A 
ATOM      5  C3  PXY d   1      -0.275  -2.201   0.839  0.00  0.00     0.003 A 
ATOM      6  C4  PXY d   1      -1.391  -2.263   0.050  0.00  0.00    -0.082 A 
ATOM      7  C5  PXY d   1      -1.617  -1.293  -0.861  0.00  0.00     0.003 A 
ATOM      8  C6  PXY d   1      -0.707  -0.246  -0.977  0.00  0.00     0.003 A 
ENDROOT
TORSDOF 0
ENDMDL
