MODEL 1
REMARK minimizedAffinity -4.84903193
REMARK minimizedRMSD -1
REMARK  0 active torsions:
REMARK  status: ('A' for Active; 'I' for Inactive)
ROOT
ATOM      1  C4' PXY d   1       2.558   2.497   1.549  0.00  0.00     0.077 C 
ATOM      2  C1' PXY d   1      -1.470  -0.350  -1.465  0.00  0.00     0.077 C 
ATOM      3  C1  PXY d   1      -0.407   0.385  -0.672  0.00  0.00    -0.082 A 
ATOM      4  C2  PXY d   1      -0.710   1.526  -0.074  0.00  0.00     0.003 A 
ATOM      5  C3  PXY d   1       0.248   2.220   0.620  0.00  0.00     0.003 A 
ATOM      6  C4  PXY d   1       1.514   1.715   0.747  0.00  0.00    -0.082 A 
ATOM      7  C5  PXY d   1       1.828   0.547   0.147  0.00  0.00     0.003 A 
ATOM      8  C6  PXY d   1       0.852  -0.122  -0.587  0.00  0.00     0.003 A 
ENDROOT
TORSDOF 0
ENDMDL
