MODEL 1
REMARK minimizedAffinity -1.89780128
REMARK minimizedRMSD -1
REMARK  0 active torsions:
REMARK  status: ('A' for Active; 'I' for Inactive)
ROOT
ATOM      1  C4' PXY d   1       2.557   1.882   0.645  0.00  0.00     0.077 C 
ATOM      2  C1' PXY d   1      -2.116  -0.700  -1.570  0.00  0.00     0.077 C 
ATOM      3  C1  PXY d   1      -0.892  -0.030  -0.979  0.00  0.00    -0.082 A 
ATOM      4  C2  PXY d   1      -0.513   1.155  -1.429  0.00  0.00     0.003 A 
ATOM      5  C3  PXY d   1       0.610   1.761  -0.927  0.00  0.00     0.003 A 
ATOM      6  C4  PXY d   1       1.322   1.172   0.083  0.00  0.00    -0.082 A 
ATOM      7  C5  PXY d   1       0.936  -0.032   0.555  0.00  0.00     0.003 A 
ATOM      8  C6  PXY d   1      -0.183  -0.649   0.004  0.00  0.00     0.003 A 
ENDROOT
TORSDOF 0
ENDMDL
