MODEL 1
REMARK minimizedAffinity -2.33471155
REMARK minimizedRMSD -1
REMARK  0 active torsions:
REMARK  status: ('A' for Active; 'I' for Inactive)
ROOT
ATOM      1  C4' PXY d   1       2.471   1.703   0.638  0.00  0.00     0.077 C 
ATOM      2  C1' PXY d   1      -2.479  -1.081  -0.442  0.00  0.00     0.077 C 
ATOM      3  C1  PXY d   1      -1.187  -0.339  -0.161  0.00  0.00    -0.082 A 
ATOM      4  C2  PXY d   1      -0.031  -0.973  -0.275  0.00  0.00     0.003 A 
ATOM      5  C3  PXY d   1       1.145  -0.327   0.006  0.00  0.00     0.003 A 
ATOM      6  C4  PXY d   1       1.142   0.997   0.356  0.00  0.00    -0.082 A 
ATOM      7  C5  PXY d   1      -0.033   1.654   0.464  0.00  0.00     0.003 A 
ATOM      8  C6  PXY d   1      -1.218   0.968   0.214  0.00  0.00     0.003 A 
ENDROOT
TORSDOF 0
ENDMDL
