MODEL 1
REMARK minimizedAffinity -3.82731652
REMARK minimizedRMSD -1
REMARK  0 active torsions:
REMARK  status: ('A' for Active; 'I' for Inactive)
ROOT
ATOM      1  C4' PXY d   1       2.676   2.177   1.011  0.00  0.00     0.077 C 
ATOM      2  C1' PXY d   1      -1.919  -0.519  -1.232  0.00  0.00     0.077 C 
ATOM      3  C1  PXY d   1      -0.709   0.177  -0.640  0.00  0.00    -0.082 A 
ATOM      4  C2  PXY d   1      -0.800   1.443  -0.267  0.00  0.00     0.003 A 
ATOM      5  C3  PXY d   1       0.294   2.097   0.241  0.00  0.00     0.003 A 
ATOM      6  C4  PXY d   1       1.478   1.432   0.418  0.00  0.00    -0.082 A 
ATOM      7  C5  PXY d   1       1.575   0.137   0.049  0.00  0.00     0.003 A 
ATOM      8  C6  PXY d   1       0.466  -0.496  -0.502  0.00  0.00     0.003 A 
ENDROOT
TORSDOF 0
ENDMDL
