MODEL 1
REMARK minimizedAffinity -2.4668386
REMARK minimizedRMSD -1
REMARK  0 active torsions:
REMARK  status: ('A' for Active; 'I' for Inactive)
ROOT
ATOM      1  C4' PXY d   1       2.728   1.638   1.515  0.00  0.00     0.077 C 
ATOM      2  C1' PXY d   1      -1.826  -0.282  -1.483  0.00  0.00     0.077 C 
ATOM      3  C1  PXY d   1      -0.625   0.211  -0.700  0.00  0.00    -0.082 A 
ATOM      4  C2  PXY d   1      -0.793   1.104   0.261  0.00  0.00     0.003 A 
ATOM      5  C3  PXY d   1       0.286   1.584   0.958  0.00  0.00     0.003 A 
ATOM      6  C4  PXY d   1       1.543   1.105   0.704  0.00  0.00    -0.082 A 
ATOM      7  C5  PXY d   1       1.721   0.186  -0.268  0.00  0.00     0.003 A 
ATOM      8  C6  PXY d   1       0.618  -0.258  -0.992  0.00  0.00     0.003 A 
ENDROOT
TORSDOF 0
ENDMDL
