MODEL 1
REMARK minimizedAffinity -4.68967962
REMARK minimizedRMSD -1
REMARK  0 active torsions:
REMARK  status: ('A' for Active; 'I' for Inactive)
ROOT
ATOM      1  C4' PXY d   1       2.695   1.853   1.913  0.00  0.00     0.077 C 
ATOM      2  C1' PXY d   1      -1.483  -0.292  -1.457  0.00  0.00     0.077 C 
ATOM      3  C1  PXY d   1      -0.382   0.258  -0.573  0.00  0.00    -0.082 A 
ATOM      4  C2  PXY d   1      -0.599   1.354   0.137  0.00  0.00     0.003 A 
ATOM      5  C3  PXY d   1       0.396   1.884   0.917  0.00  0.00     0.003 A 
ATOM      6  C4  PXY d   1       1.609   1.256   1.014  0.00  0.00    -0.082 A 
ATOM      7  C5  PXY d   1       1.835   0.132   0.301  0.00  0.00     0.003 A 
ATOM      8  C6  PXY d   1       0.825  -0.367  -0.517  0.00  0.00     0.003 A 
ENDROOT
TORSDOF 0
ENDMDL
