MODEL 1
REMARK minimizedAffinity -3.18582344
REMARK minimizedRMSD -1
REMARK  0 active torsions:
REMARK  status: ('A' for Active; 'I' for Inactive)
ROOT
ATOM      1  C4' PXY d   1      -2.026  -0.426  -2.167  0.00  0.00     0.077 C 
ATOM      2  C1' PXY d   1       2.494   1.836   0.638  0.00  0.00     0.077 C 
ATOM      3  C1  PXY d   1       1.301   1.252  -0.093  0.00  0.00    -0.082 A 
ATOM      4  C2  PXY d   1       1.298  -0.030  -0.422  0.00  0.00     0.003 A 
ATOM      5  C3  PXY d   1       0.242  -0.567  -1.111  0.00  0.00     0.003 A 
ATOM      6  C4  PXY d   1      -0.847   0.204  -1.421  0.00  0.00    -0.082 A 
ATOM      7  C5  PXY d   1      -0.857   1.510  -1.079  0.00  0.00     0.003 A 
ATOM      8  C6  PXY d   1       0.243   2.045  -0.416  0.00  0.00     0.003 A 
ENDROOT
TORSDOF 0
ENDMDL
