MODEL 1
REMARK minimizedAffinity -3.54255366
REMARK minimizedRMSD -1
REMARK  0 active torsions:
REMARK  status: ('A' for Active; 'I' for Inactive)
ROOT
ATOM      1  C4' PXY d   1       2.393   2.448   0.672  0.00  0.00     0.077 C 
ATOM      2  C1' PXY d   1      -1.886  -0.763  -1.516  0.00  0.00     0.077 C 
ATOM      3  C1  PXY d   1      -0.763   0.071  -0.932  0.00  0.00    -0.082 A 
ATOM      4  C2  PXY d   1      -0.656   1.348  -1.263  0.00  0.00     0.003 A 
ATOM      5  C3  PXY d   1       0.373   2.109  -0.769  0.00  0.00     0.003 A 
ATOM      6  C4  PXY d   1       1.270   1.571   0.114  0.00  0.00    -0.082 A 
ATOM      7  C5  PXY d   1       1.161   0.272   0.465  0.00  0.00     0.003 A 
ATOM      8  C6  PXY d   1       0.134  -0.494  -0.079  0.00  0.00     0.003 A 
ENDROOT
TORSDOF 0
ENDMDL
