MODEL 1
REMARK minimizedAffinity -2.3147285
REMARK minimizedRMSD -1
REMARK  0 active torsions:
REMARK  status: ('A' for Active; 'I' for Inactive)
ROOT
ATOM      1  C4' PXY d   1      -0.834  -3.457   1.730  0.00  0.00     0.077 C 
ATOM      2  C1' PXY d   1      -0.885   0.886  -2.085  0.00  0.00     0.077 C 
ATOM      3  C1  PXY d   1      -0.884  -0.253  -1.085  0.00  0.00    -0.082 A 
ATOM      4  C2  PXY d   1       0.150  -0.413  -0.275  0.00  0.00     0.003 A 
ATOM      5  C3  PXY d   1       0.181  -1.457   0.613  0.00  0.00     0.003 A 
ATOM      6  C4  PXY d   1      -0.881  -2.315   0.711  0.00  0.00    -0.082 A 
ATOM      7  C5  PXY d   1      -1.945  -2.153  -0.104  0.00  0.00     0.003 A 
ATOM      8  C6  PXY d   1      -1.939  -1.111  -1.028  0.00  0.00     0.003 A 
ENDROOT
TORSDOF 0
ENDMDL
