MODEL 1
REMARK minimizedAffinity -1.98671091
REMARK minimizedRMSD -1
REMARK  0 active torsions:
REMARK  status: ('A' for Active; 'I' for Inactive)
ROOT
ATOM      1  C4' PXY d   1       2.722   1.538   0.420  0.00  0.00     0.077 C 
ATOM      2  C1' PXY d   1      -2.314  -0.919  -1.000  0.00  0.00     0.077 C 
ATOM      3  C1  PXY d   1      -0.991  -0.284  -0.619  0.00  0.00    -0.082 A 
ATOM      4  C2  PXY d   1      -0.773   0.990  -0.900  0.00  0.00     0.003 A 
ATOM      5  C3  PXY d   1       0.429   1.573  -0.590  0.00  0.00     0.003 A 
ATOM      6  C4  PXY d   1       1.398   0.857   0.061  0.00  0.00    -0.082 A 
ATOM      7  C5  PXY d   1       1.179  -0.441   0.361  0.00  0.00     0.003 A 
ATOM      8  C6  PXY d   1      -0.033  -1.024   0.001  0.00  0.00     0.003 A 
ENDROOT
TORSDOF 0
ENDMDL
