MODEL 1
REMARK minimizedAffinity -4.27625084
REMARK minimizedRMSD -1
REMARK  0 active torsions:
REMARK  status: ('A' for Active; 'I' for Inactive)
ROOT
ATOM      1  C4' PXY d   1       2.489   2.157   0.807  0.00  0.00     0.077 C 
ATOM      2  C1' PXY d   1      -2.034  -0.615  -1.487  0.00  0.00     0.077 C 
ATOM      3  C1  PXY d   1      -0.842   0.100  -0.884  0.00  0.00    -0.082 A 
ATOM      4  C2  PXY d   1      -1.018   1.251  -0.256  0.00  0.00     0.003 A 
ATOM      5  C3  PXY d   1       0.054   1.928   0.267  0.00  0.00     0.003 A 
ATOM      6  C4  PXY d   1       1.313   1.395   0.192  0.00  0.00    -0.082 A 
ATOM      7  C5  PXY d   1       1.500   0.216  -0.438  0.00  0.00     0.003 A 
ATOM      8  C6  PXY d   1       0.404  -0.435  -0.998  0.00  0.00     0.003 A 
ENDROOT
TORSDOF 0
ENDMDL
