MODEL 1
REMARK minimizedAffinity -0.700579703
REMARK minimizedRMSD -1
REMARK  0 active torsions:
REMARK  status: ('A' for Active; 'I' for Inactive)
ROOT
ATOM      1  C4' PXY d   1      -1.863  -3.401   0.940  0.00  0.00     0.077 C 
ATOM      2  C1' PXY d   1      -0.737   1.732  -1.469  0.00  0.00     0.077 C 
ATOM      3  C1  PXY d   1      -1.020   0.385  -0.832  0.00  0.00    -0.082 A 
ATOM      4  C2  PXY d   1      -1.997  -0.370  -1.308  0.00  0.00     0.003 A 
ATOM      5  C3  PXY d   1      -2.287  -1.576  -0.724  0.00  0.00     0.003 A 
ATOM      6  C4  PXY d   1      -1.535  -2.038   0.323  0.00  0.00    -0.082 A 
ATOM      7  C5  PXY d   1      -0.530  -1.278   0.807  0.00  0.00     0.003 A 
ATOM      8  C6  PXY d   1      -0.278  -0.038   0.227  0.00  0.00     0.003 A 
ENDROOT
TORSDOF 0
ENDMDL
