MODEL 1
REMARK minimizedAffinity -3.07956672
REMARK minimizedRMSD -1
REMARK  0 active torsions:
REMARK  status: ('A' for Active; 'I' for Inactive)
ROOT
ATOM      1  C4' PXY d   1       2.553   1.866   1.515  0.00  0.00     0.077 C 
ATOM      2  C1' PXY d   1      -1.783  -0.506  -1.482  0.00  0.00     0.077 C 
ATOM      3  C1  PXY d   1      -0.639   0.105  -0.696  0.00  0.00    -0.082 A 
ATOM      4  C2  PXY d   1      -0.864   1.156   0.075  0.00  0.00     0.003 A 
ATOM      5  C3  PXY d   1       0.165   1.740   0.768  0.00  0.00     0.003 A 
ATOM      6  C4  PXY d   1       1.427   1.211   0.712  0.00  0.00    -0.082 A 
ATOM      7  C5  PXY d   1       1.662   0.132  -0.065  0.00  0.00     0.003 A 
ATOM      8  C6  PXY d   1       0.612  -0.422  -0.792  0.00  0.00     0.003 A 
ENDROOT
TORSDOF 0
ENDMDL
