MODEL 1
REMARK minimizedAffinity -2.13234758
REMARK minimizedRMSD -1
REMARK  0 active torsions:
REMARK  status: ('A' for Active; 'I' for Inactive)
ROOT
ATOM      1  C4' PXY d   1       2.655   1.841   0.347  0.00  0.00     0.077 C 
ATOM      2  C1' PXY d   1      -2.266  -0.802  -1.141  0.00  0.00     0.077 C 
ATOM      3  C1  PXY d   1      -0.974  -0.117  -0.740  0.00  0.00    -0.082 A 
ATOM      4  C2  PXY d   1      -0.728   1.113  -1.163  0.00  0.00     0.003 A 
ATOM      5  C3  PXY d   1       0.449   1.735  -0.837  0.00  0.00     0.003 A 
ATOM      6  C4  PXY d   1       1.360   1.113  -0.025  0.00  0.00    -0.082 A 
ATOM      7  C5  PXY d   1       1.111  -0.137   0.419  0.00  0.00     0.003 A 
ATOM      8  C6  PXY d   1      -0.071  -0.767   0.042  0.00  0.00     0.003 A 
ENDROOT
TORSDOF 0
ENDMDL
