MODEL 1
REMARK minimizedAffinity -2.35338283
REMARK minimizedRMSD -1
REMARK  0 active torsions:
REMARK  status: ('A' for Active; 'I' for Inactive)
ROOT
ATOM      1  C4' PXY d   1      -1.395  -0.416  -1.183  0.00  0.00     0.077 C 
ATOM      2  C1' PXY d   1       2.461   2.575   1.916  0.00  0.00     0.077 C 
ATOM      3  C1  PXY d   1       1.459   1.783   1.098  0.00  0.00    -0.082 A 
ATOM      4  C2  PXY d   1       0.294   2.328   0.785  0.00  0.00     0.003 A 
ATOM      5  C3  PXY d   1      -0.636   1.614   0.074  0.00  0.00     0.003 A 
ATOM      6  C4  PXY d   1      -0.350   0.350  -0.368  0.00  0.00    -0.082 A 
ATOM      7  C5  PXY d   1       0.841  -0.208  -0.062  0.00  0.00     0.003 A 
ATOM      8  C6  PXY d   1       1.755   0.518   0.696  0.00  0.00     0.003 A 
ENDROOT
TORSDOF 0
ENDMDL
