MODEL 1
REMARK minimizedAffinity -5.26601839
REMARK minimizedRMSD -1
REMARK  0 active torsions:
REMARK  status: ('A' for Active; 'I' for Inactive)
ROOT
ATOM      1  C4' PXY d   1      -1.953  -0.645  -1.382  0.00  0.00     0.077 C 
ATOM      2  C1' PXY d   1       2.160   2.502   1.185  0.00  0.00     0.077 C 
ATOM      3  C1  PXY d   1       1.073   1.686   0.515  0.00  0.00    -0.082 A 
ATOM      4  C2  PXY d   1       1.222   0.377   0.386  0.00  0.00     0.003 A 
ATOM      5  C3  PXY d   1       0.263  -0.371  -0.246  0.00  0.00     0.003 A 
ATOM      6  C4  PXY d   1      -0.885   0.217  -0.703  0.00  0.00    -0.082 A 
ATOM      7  C5  PXY d   1      -1.050   1.550  -0.566  0.00  0.00     0.003 A 
ATOM      8  C6  PXY d   1      -0.046   2.298   0.042  0.00  0.00     0.003 A 
ENDROOT
TORSDOF 0
ENDMDL
