MODEL 1
REMARK minimizedAffinity -4.5203495
REMARK minimizedRMSD -1
REMARK  0 active torsions:
REMARK  status: ('A' for Active; 'I' for Inactive)
ROOT
ATOM      1  C4' PXY d   1      -1.475  -0.214  -1.307  0.00  0.00     0.077 C 
ATOM      2  C1' PXY d   1       2.735   2.606   1.474  0.00  0.00     0.077 C 
ATOM      3  C1  PXY d   1       1.623   1.875   0.749  0.00  0.00    -0.082 A 
ATOM      4  C2  PXY d   1       1.751   0.585   0.485  0.00  0.00     0.003 A 
ATOM      5  C3  PXY d   1       0.768  -0.084  -0.199  0.00  0.00     0.003 A 
ATOM      6  C4  PXY d   1      -0.381   0.562  -0.568  0.00  0.00    -0.082 A 
ATOM      7  C5  PXY d   1      -0.524   1.876  -0.293  0.00  0.00     0.003 A 
ATOM      8  C6  PXY d   1       0.503   2.546   0.365  0.00  0.00     0.003 A 
ENDROOT
TORSDOF 0
ENDMDL
