MODEL 1
REMARK minimizedAffinity -2.71469164
REMARK minimizedRMSD -1
REMARK  0 active torsions:
REMARK  status: ('A' for Active; 'I' for Inactive)
ROOT
ATOM      1  C4' PXY d   1       2.540   2.183   0.919  0.00  0.00     0.077 C 
ATOM      2  C1' PXY d   1      -1.897  -0.833  -1.232  0.00  0.00     0.077 C 
ATOM      3  C1  PXY d   1      -0.727  -0.053  -0.667  0.00  0.00    -0.082 A 
ATOM      4  C2  PXY d   1      -0.937   1.126  -0.104  0.00  0.00     0.003 A 
ATOM      5  C3  PXY d   1       0.114   1.859   0.384  0.00  0.00     0.003 A 
ATOM      6  C4  PXY d   1       1.387   1.357   0.343  0.00  0.00    -0.082 A 
ATOM      7  C5  PXY d   1       1.608   0.150  -0.220  0.00  0.00     0.003 A 
ATOM      8  C6  PXY d   1       0.533  -0.560  -0.746  0.00  0.00     0.003 A 
ENDROOT
TORSDOF 0
ENDMDL
