MODEL 1
REMARK minimizedAffinity -0.963977277
REMARK minimizedRMSD -1
REMARK  0 active torsions:
REMARK  status: ('A' for Active; 'I' for Inactive)
ROOT
ATOM      1  C4' PXY d   1      -0.131   1.097  -1.050  0.00  0.00     0.077 C 
ATOM      2  C1' PXY d   1      -2.753  -3.792   0.577  0.00  0.00     0.077 C 
ATOM      3  C1  PXY d   1      -2.069  -2.512   0.138  0.00  0.00    -0.082 A 
ATOM      4  C2  PXY d   1      -1.062  -2.031   0.849  0.00  0.00     0.003 A 
ATOM      5  C3  PXY d   1      -0.454  -0.858   0.484  0.00  0.00     0.003 A 
ATOM      6  C4  PXY d   1      -0.845  -0.198  -0.649  0.00  0.00    -0.082 A 
ATOM      7  C5  PXY d   1      -1.865  -0.687  -1.386  0.00  0.00     0.003 A 
ATOM      8  C6  PXY d   1      -2.497  -1.858  -0.976  0.00  0.00     0.003 A 
ENDROOT
TORSDOF 0
ENDMDL
