MODEL 1
REMARK minimizedAffinity 1.80995607
REMARK minimizedRMSD -1
REMARK  0 active torsions:
REMARK  status: ('A' for Active; 'I' for Inactive)
ROOT
ATOM      1  C   UNL d   1      -0.419   3.401   1.821  0.00  0.00    -0.002 A 
ATOM      2  C1  UNL d   1      -0.214   2.096   2.247  0.00  0.00     0.010 A 
ATOM      3  C2  UNL d   1      -0.097   1.057   1.321  0.00  0.00     0.041 A 
ATOM      4  C3  UNL d   1      -0.188   1.356  -0.053  0.00  0.00    -0.075 A 
ATOM      5  S   UNL d   1      -0.072   0.246  -1.367  0.00  0.00     0.015 SA
ATOM      6  C4  UNL d   1      -0.291   1.478  -2.524  0.00  0.00     0.022 A 
ATOM      7  C5  UNL d   1      -0.450   2.712  -1.940  0.00  0.00     0.026 A 
ATOM      8  C6  UNL d   1      -0.392   2.662  -0.506  0.00  0.00    -0.082 A 
ATOM      9  C7  UNL d   1      -0.508   3.693   0.458  0.00  0.00     0.045 A 
ENDROOT
TORSDOF 0
ENDMDL
