MODEL 1
REMARK minimizedAffinity 6.13657904
REMARK minimizedRMSD -1
REMARK  0 active torsions:
REMARK  status: ('A' for Active; 'I' for Inactive)
ROOT
ATOM      1  C   UNL d   1      -1.905   3.542   2.569  0.00  0.00    -0.002 A 
ATOM      2  C1  UNL d   1      -1.526   2.251   2.907  0.00  0.00     0.010 A 
ATOM      3  C2  UNL d   1      -1.140   1.342   1.920  0.00  0.00     0.041 A 
ATOM      4  C3  UNL d   1      -1.139   1.759   0.574  0.00  0.00    -0.075 A 
ATOM      5  S   UNL d   1      -0.703   0.819  -0.804  0.00  0.00     0.015 SA
ATOM      6  C4  UNL d   1      -1.008   2.110  -1.874  0.00  0.00     0.022 A 
ATOM      7  C5  UNL d   1      -1.433   3.238  -1.213  0.00  0.00     0.026 A 
ATOM      8  C6  UNL d   1      -1.515   3.054   0.209  0.00  0.00    -0.082 A 
ATOM      9  C7  UNL d   1      -1.902   3.952   1.233  0.00  0.00     0.045 A 
ENDROOT
TORSDOF 0
ENDMDL
