MODEL 1
REMARK minimizedAffinity 7.38258076
REMARK minimizedRMSD -1
REMARK  0 active torsions:
REMARK  status: ('A' for Active; 'I' for Inactive)
ROOT
ATOM      1  C   UNL d   1       0.148   2.191   0.669  0.00  0.00    -0.002 A 
ATOM      2  C1  UNL d   1      -0.171   2.972   1.770  0.00  0.00     0.010 A 
ATOM      3  C2  UNL d   1      -0.308   2.395   3.034  0.00  0.00     0.041 A 
ATOM      4  C3  UNL d   1      -0.115   1.006   3.174  0.00  0.00    -0.075 A 
ATOM      5  S   UNL d   1      -0.231   0.081   4.624  0.00  0.00     0.015 SA
ATOM      6  C4  UNL d   1       0.143  -1.372   3.816  0.00  0.00     0.022 A 
ATOM      7  C5  UNL d   1       0.353  -1.175   2.471  0.00  0.00     0.026 A 
ATOM      8  C6  UNL d   1       0.208   0.199   2.079  0.00  0.00    -0.082 A 
ATOM      9  C7  UNL d   1       0.339   0.814   0.811  0.00  0.00     0.045 A 
ENDROOT
TORSDOF 0
ENDMDL
