MODEL 1
REMARK minimizedAffinity 12.010519
REMARK minimizedRMSD -1
REMARK  0 active torsions:
REMARK  status: ('A' for Active; 'I' for Inactive)
ROOT
ATOM      1  C   UNL d   1      -0.362   2.257   2.526  0.00  0.00    -0.002 A 
ATOM      2  C1  UNL d   1      -1.702   2.594   2.404  0.00  0.00     0.010 A 
ATOM      3  C2  UNL d   1      -2.338   2.541   1.162  0.00  0.00     0.041 A 
ATOM      4  C3  UNL d   1      -1.597   2.137   0.034  0.00  0.00    -0.075 A 
ATOM      5  S   UNL d   1      -2.166   1.996  -1.587  0.00  0.00     0.015 SA
ATOM      6  C4  UNL d   1      -0.644   1.484  -2.156  0.00  0.00     0.022 A 
ATOM      7  C5  UNL d   1       0.288   1.417  -1.148  0.00  0.00     0.026 A 
ATOM      8  C6  UNL d   1      -0.246   1.792   0.132  0.00  0.00    -0.082 A 
ATOM      9  C7  UNL d   1       0.370   1.857   1.405  0.00  0.00     0.045 A 
ENDROOT
TORSDOF 0
ENDMDL
