MODEL 1
REMARK minimizedAffinity 0.634383976
REMARK minimizedRMSD -1
REMARK  0 active torsions:
REMARK  status: ('A' for Active; 'I' for Inactive)
ROOT
ATOM      1  C   UNL d   1      -2.992   1.528  -1.918  0.00  0.00    -0.002 A 
ATOM      2  C1  UNL d   1      -4.172   0.868  -2.233  0.00  0.00     0.010 A 
ATOM      3  C2  UNL d   1      -5.158   1.500  -2.994  0.00  0.00     0.041 A 
ATOM      4  C3  UNL d   1      -4.935   2.818  -3.439  0.00  0.00    -0.075 A 
ATOM      5  S   UNL d   1      -6.000   3.789  -4.385  0.00  0.00     0.015 SA
ATOM      6  C4  UNL d   1      -4.914   5.102  -4.394  0.00  0.00     0.022 A 
ATOM      7  C5  UNL d   1      -3.762   4.824  -3.698  0.00  0.00     0.026 A 
ATOM      8  C6  UNL d   1      -3.755   3.502  -3.136  0.00  0.00    -0.082 A 
ATOM      9  C7  UNL d   1      -2.775   2.835  -2.362  0.00  0.00     0.045 A 
ENDROOT
TORSDOF 0
ENDMDL
