MODEL 1
REMARK minimizedAffinity 7.69474459
REMARK minimizedRMSD -1
REMARK  0 active torsions:
REMARK  status: ('A' for Active; 'I' for Inactive)
ROOT
ATOM      1  C   UNL d   1      -2.880   2.911  -1.781  0.00  0.00    -0.002 A 
ATOM      2  C1  UNL d   1      -3.339   1.971  -2.694  0.00  0.00     0.010 A 
ATOM      3  C2  UNL d   1      -4.128   2.361  -3.778  0.00  0.00     0.041 A 
ATOM      4  C3  UNL d   1      -4.449   3.724  -3.932  0.00  0.00    -0.075 A 
ATOM      5  S   UNL d   1      -5.400   4.432  -5.184  0.00  0.00     0.015 SA
ATOM      6  C4  UNL d   1      -5.219   5.999  -4.538  0.00  0.00     0.022 A 
ATOM      7  C5  UNL d   1      -4.455   5.999  -3.395  0.00  0.00     0.026 A 
ATOM      8  C6  UNL d   1      -3.998   4.688  -3.027  0.00  0.00    -0.082 A 
ATOM      9  C7  UNL d   1      -3.201   4.262  -1.938  0.00  0.00     0.045 A 
ENDROOT
TORSDOF 0
ENDMDL
