MODEL 1
REMARK minimizedAffinity -4.20233297
REMARK minimizedRMSD -1
REMARK  1 active torsions:
REMARK  status: ('A' for Active; 'I' for Inactive)
REMARK    1  A    between atoms: N_2  and  C1_3 
ROOT
ATOM      1  C1  UNL d   1      -0.870  -1.161   0.065  0.00  0.00     0.143 A 
ATOM      2  C2  UNL d   1      -0.399   0.122  -0.232  0.00  0.00    -0.057 A 
ATOM      3  C3  UNL d   1       0.720   0.654   0.420  0.00  0.00     0.033 A 
ATOM      4  C4  UNL d   1       1.372  -0.080   1.405  0.00  0.00    -0.042 A 
ATOM      5  C5  UNL d   1       0.906  -1.348   1.735  0.00  0.00     0.033 A 
ATOM      6  C6  UNL d   1      -0.208  -1.876   1.075  0.00  0.00    -0.057 A 
ENDROOT
BRANCH   1   7
ATOM      7  N   UNL d   1      -2.036  -1.707  -0.478  0.00  0.00    -0.732 N 
ATOM      8  C   UNL d   1      -3.142  -0.854  -0.856  0.00  0.00     0.284 C 
ATOM      9  H3  UNL d   1      -1.843  -2.455  -1.140  0.00  0.00     0.395 HD
ENDBRANCH   1   7
TORSDOF 1
ENDMDL
