MODEL 1
REMARK minimizedAffinity -0.458359927
REMARK minimizedRMSD -1
REMARK  1 active torsions:
REMARK  status: ('A' for Active; 'I' for Inactive)
REMARK    1  A    between atoms: N_2  and  C1_3 
ROOT
ATOM      1  C1  UNL d   1       4.506   3.777   1.705  0.00  0.00     0.143 A 
ATOM      2  C2  UNL d   1       3.742   3.295   0.636  0.00  0.00    -0.057 A 
ATOM      3  C3  UNL d   1       3.898   3.808  -0.657  0.00  0.00     0.033 A 
ATOM      4  C4  UNL d   1       4.803   4.835  -0.900  0.00  0.00    -0.042 A 
ATOM      5  C5  UNL d   1       5.555   5.347   0.152  0.00  0.00     0.033 A 
ATOM      6  C6  UNL d   1       5.400   4.826   1.440  0.00  0.00    -0.057 A 
ENDROOT
BRANCH   1   7
ATOM      7  N   UNL d   1       4.327   3.377   3.031  0.00  0.00    -0.732 N 
ATOM      8  C   UNL d   1       3.104   2.725   3.447  0.00  0.00     0.284 C 
ATOM      9  H3  UNL d   1       5.171   2.972   3.432  0.00  0.00     0.395 HD
ENDBRANCH   1   7
TORSDOF 1
ENDMDL
