MODEL 1
REMARK minimizedAffinity -5.53834438
REMARK minimizedRMSD -1
REMARK  1 active torsions:
REMARK  status: ('A' for Active; 'I' for Inactive)
REMARK    1  A    between atoms: N_2  and  C1_3 
ROOT
ATOM      1  C1  UNL d   1       0.076   0.350   0.187  0.00  0.00     0.143 A 
ATOM      2  C2  UNL d   1      -0.836   0.375  -0.873  0.00  0.00    -0.057 A 
ATOM      3  C3  UNL d   1      -1.901  -0.531  -0.937  0.00  0.00     0.033 A 
ATOM      4  C4  UNL d   1      -2.056  -1.501   0.048  0.00  0.00    -0.042 A 
ATOM      5  C5  UNL d   1      -1.147  -1.561   1.098  0.00  0.00     0.033 A 
ATOM      6  C6  UNL d   1      -0.089  -0.649   1.159  0.00  0.00    -0.057 A 
ENDROOT
BRANCH   1   7
ATOM      7  N   UNL d   1       1.212   1.160   0.255  0.00  0.00    -0.732 N 
ATOM      8  C   UNL d   1       1.779   1.528   1.535  0.00  0.00     0.284 C 
ATOM      9  H3  UNL d   1       1.903   0.920  -0.452  0.00  0.00     0.395 HD
ENDBRANCH   1   7
TORSDOF 1
ENDMDL
