MODEL 1
REMARK minimizedAffinity 2.74368882
REMARK minimizedRMSD -1
REMARK  1 active torsions:
REMARK  status: ('A' for Active; 'I' for Inactive)
REMARK    1  A    between atoms: N_2  and  C1_3 
ROOT
ATOM      1  C1  UNL d   1       1.239   0.758   2.553  0.00  0.00     0.143 A 
ATOM      2  C2  UNL d   1      -0.125   0.806   2.859  0.00  0.00    -0.057 A 
ATOM      3  C3  UNL d   1      -0.968  -0.278   2.584  0.00  0.00     0.033 A 
ATOM      4  C4  UNL d   1      -0.465  -1.421   1.971  0.00  0.00    -0.042 A 
ATOM      5  C5  UNL d   1       0.883  -1.480   1.636  0.00  0.00     0.033 A 
ATOM      6  C6  UNL d   1       1.721  -0.397   1.919  0.00  0.00    -0.057 A 
ENDROOT
BRANCH   1   7
ATOM      7  N   UNL d   1       2.110   1.840   2.711  0.00  0.00    -0.732 N 
ATOM      8  C   UNL d   1       3.052   2.186   1.669  0.00  0.00     0.284 C 
ATOM      9  H3  UNL d   1       1.658   2.641   3.146  0.00  0.00     0.395 HD
ENDBRANCH   1   7
TORSDOF 1
ENDMDL
