MODEL 1
REMARK minimizedAffinity 6.42460823
REMARK minimizedRMSD -1
REMARK  1 active torsions:
REMARK  status: ('A' for Active; 'I' for Inactive)
REMARK    1  A    between atoms: N_2  and  C1_3 
ROOT
ATOM      1  C1  UNL d   1      -0.997  -1.456   2.947  0.00  0.00     0.143 A 
ATOM      2  C2  UNL d   1      -2.160  -1.858   3.613  0.00  0.00    -0.057 A 
ATOM      3  C3  UNL d   1      -2.981  -0.929   4.265  0.00  0.00     0.033 A 
ATOM      4  C4  UNL d   1      -2.636   0.418   4.286  0.00  0.00    -0.042 A 
ATOM      5  C5  UNL d   1      -1.471   0.836   3.653  0.00  0.00     0.033 A 
ATOM      6  C6  UNL d   1      -0.659  -0.095   2.998  0.00  0.00    -0.057 A 
ENDROOT
BRANCH   1   7
ATOM      7  N   UNL d   1      -0.088  -2.344   2.366  0.00  0.00    -0.732 N 
ATOM      8  C   UNL d   1       1.318  -2.013   2.287  0.00  0.00     0.284 C 
ATOM      9  H3  UNL d   1      -0.274  -3.312   2.619  0.00  0.00     0.395 HD
ENDBRANCH   1   7
TORSDOF 1
ENDMDL
