MODEL 1
REMARK minimizedAffinity -3.73113966
REMARK minimizedRMSD -1
REMARK  1 active torsions:
REMARK  status: ('A' for Active; 'I' for Inactive)
REMARK    1  A    between atoms: N_2  and  C1_3 
ROOT
ATOM      1  C1  UNL d   1      -2.254   0.735  -1.841  0.00  0.00     0.143 A 
ATOM      2  C2  UNL d   1      -3.281   0.673  -0.893  0.00  0.00    -0.057 A 
ATOM      3  C3  UNL d   1      -3.245  -0.252   0.157  0.00  0.00     0.033 A 
ATOM      4  C4  UNL d   1      -2.191  -1.154   0.262  0.00  0.00    -0.042 A 
ATOM      5  C5  UNL d   1      -1.171  -1.127  -0.683  0.00  0.00     0.033 A 
ATOM      6  C6  UNL d   1      -1.210  -0.196  -1.726  0.00  0.00    -0.057 A 
ENDROOT
BRANCH   1   7
ATOM      7  N   UNL d   1      -2.281   1.566  -2.964  0.00  0.00    -0.732 N 
ATOM      8  C   UNL d   1      -1.054   2.094  -3.520  0.00  0.00     0.284 C 
ATOM      9  H3  UNL d   1      -2.954   1.254  -3.661  0.00  0.00     0.395 HD
ENDBRANCH   1   7
TORSDOF 1
ENDMDL
