MODEL 1
REMARK minimizedAffinity -1.12808371
REMARK minimizedRMSD -1
REMARK  1 active torsions:
REMARK  status: ('A' for Active; 'I' for Inactive)
REMARK    1  A    between atoms: N_2  and  C1_3 
ROOT
ATOM      1  C1  UNL d   1      -1.660  -1.714   0.624  0.00  0.00     0.143 A 
ATOM      2  C2  UNL d   1      -0.966  -1.407  -0.552  0.00  0.00    -0.057 A 
ATOM      3  C3  UNL d   1      -0.079  -0.325  -0.611  0.00  0.00     0.033 A 
ATOM      4  C4  UNL d   1       0.108   0.490   0.501  0.00  0.00    -0.042 A 
ATOM      5  C5  UNL d   1      -0.590   0.219   1.672  0.00  0.00     0.033 A 
ATOM      6  C6  UNL d   1      -1.469  -0.867   1.727  0.00  0.00    -0.057 A 
ENDROOT
BRANCH   1   7
ATOM      7  N   UNL d   1      -2.629  -2.715   0.716  0.00  0.00    -0.732 N 
ATOM      8  C   UNL d   1      -2.741  -3.730  -0.310  0.00  0.00     0.284 C 
ATOM      9  H3  UNL d   1      -2.731  -3.070   1.664  0.00  0.00     0.395 HD
ENDBRANCH   1   7
TORSDOF 1
ENDMDL
