MODEL 1
REMARK minimizedAffinity 4.8802166
REMARK minimizedRMSD -1
REMARK  1 active torsions:
REMARK  status: ('A' for Active; 'I' for Inactive)
REMARK    1  A    between atoms: N_2  and  C1_3 
ROOT
ATOM      1  C1  UNL d   1      -0.793  -0.563  -0.357  0.00  0.00     0.143 A 
ATOM      2  C2  UNL d   1      -1.677  -0.560  -1.442  0.00  0.00    -0.057 A 
ATOM      3  C3  UNL d   1      -1.268  -0.131  -2.710  0.00  0.00     0.033 A 
ATOM      4  C4  UNL d   1       0.028   0.333  -2.910  0.00  0.00    -0.042 A 
ATOM      5  C5  UNL d   1       0.916   0.363  -1.841  0.00  0.00     0.033 A 
ATOM      6  C6  UNL d   1       0.504  -0.074  -0.578  0.00  0.00    -0.057 A 
ENDROOT
BRANCH   1   7
ATOM      7  N   UNL d   1      -1.167  -0.885   0.950  0.00  0.00    -0.732 N 
ATOM      8  C   UNL d   1      -1.958   0.035   1.739  0.00  0.00     0.284 C 
ATOM      9  H3  UNL d   1      -1.444  -1.860   1.046  0.00  0.00     0.395 HD
ENDBRANCH   1   7
TORSDOF 1
ENDMDL
