MODEL 1
REMARK minimizedAffinity 5.71274853
REMARK minimizedRMSD -1
REMARK  1 active torsions:
REMARK  status: ('A' for Active; 'I' for Inactive)
REMARK    1  A    between atoms: N_2  and  C1_3 
ROOT
ATOM      1  C1  UNL d   1      -4.790   5.801   0.203  0.00  0.00     0.143 A 
ATOM      2  C2  UNL d   1      -5.988   5.770   0.926  0.00  0.00    -0.057 A 
ATOM      3  C3  UNL d   1      -5.994   5.847   2.324  0.00  0.00     0.033 A 
ATOM      4  C4  UNL d   1      -4.797   5.927   3.027  0.00  0.00    -0.042 A 
ATOM      5  C5  UNL d   1      -3.593   5.934   2.331  0.00  0.00     0.033 A 
ATOM      6  C6  UNL d   1      -3.594   5.864   0.934  0.00  0.00    -0.057 A 
ENDROOT
BRANCH   1   7
ATOM      7  N   UNL d   1      -4.713   5.629  -1.181  0.00  0.00    -0.732 N 
ATOM      8  C   UNL d   1      -5.017   4.348  -1.783  0.00  0.00     0.284 C 
ATOM      9  H3  UNL d   1      -5.083   6.427  -1.693  0.00  0.00     0.395 HD
ENDBRANCH   1   7
TORSDOF 1
ENDMDL
