MODEL 1
REMARK minimizedAffinity -2.05143642
REMARK minimizedRMSD -1
REMARK  1 active torsions:
REMARK  status: ('A' for Active; 'I' for Inactive)
REMARK    1  A    between atoms: N_2  and  C1_3 
ROOT
ATOM      1  C1  UNL d   1      -0.346  -1.505   0.207  0.00  0.00     0.143 A 
ATOM      2  C2  UNL d   1      -0.469  -0.498  -0.756  0.00  0.00    -0.057 A 
ATOM      3  C3  UNL d   1      -1.510  -0.511  -1.692  0.00  0.00     0.033 A 
ATOM      4  C4  UNL d   1      -2.434  -1.551  -1.699  0.00  0.00    -0.042 A 
ATOM      5  C5  UNL d   1      -2.317  -2.576  -0.766  0.00  0.00     0.033 A 
ATOM      6  C6  UNL d   1      -1.279  -2.554   0.170  0.00  0.00    -0.057 A 
ENDROOT
BRANCH   1   7
ATOM      7  N   UNL d   1       0.724  -1.601   1.101  0.00  0.00    -0.732 N 
ATOM      8  C   UNL d   1       0.608  -1.084   2.447  0.00  0.00     0.284 C 
ATOM      9  H3  UNL d   1       1.202  -2.497   1.039  0.00  0.00     0.395 HD
ENDBRANCH   1   7
TORSDOF 1
ENDMDL
