MODEL 1
REMARK minimizedAffinity -3.7285049
REMARK minimizedRMSD -1
REMARK  1 active torsions:
REMARK  status: ('A' for Active; 'I' for Inactive)
REMARK    1  A    between atoms: N_2  and  C1_3 
ROOT
ATOM      1  C1  UNL d   1      -0.268  -0.898   0.858  0.00  0.00     0.143 A 
ATOM      2  C2  UNL d   1      -1.252  -0.531  -0.067  0.00  0.00    -0.057 A 
ATOM      3  C3  UNL d   1      -2.333  -1.373  -0.351  0.00  0.00     0.033 A 
ATOM      4  C4  UNL d   1      -2.435  -2.616   0.267  0.00  0.00    -0.042 A 
ATOM      5  C5  UNL d   1      -1.456  -3.013   1.171  0.00  0.00     0.033 A 
ATOM      6  C6  UNL d   1      -0.382  -2.164   1.454  0.00  0.00    -0.057 A 
ENDROOT
BRANCH   1   7
ATOM      7  N   UNL d   1       0.882  -0.147   1.109  0.00  0.00    -0.732 N 
ATOM      8  C   UNL d   1       1.345   0.835   0.152  0.00  0.00     0.284 C 
ATOM      9  H3  UNL d   1       0.945   0.155   2.079  0.00  0.00     0.395 HD
ENDBRANCH   1   7
TORSDOF 1
ENDMDL
