MODEL 1
REMARK minimizedAffinity -4.44947243
REMARK minimizedRMSD -1
REMARK  1 active torsions:
REMARK  status: ('A' for Active; 'I' for Inactive)
REMARK    1  A    between atoms: N_2  and  C1_3 
ROOT
ATOM      1  C1  UNL d   1       1.561   0.631   0.669  0.00  0.00     0.143 A 
ATOM      2  C2  UNL d   1       2.280   1.667   0.063  0.00  0.00    -0.057 A 
ATOM      3  C3  UNL d   1       2.864   2.688   0.823  0.00  0.00     0.033 A 
ATOM      4  C4  UNL d   1       2.712   2.707   2.206  0.00  0.00    -0.042 A 
ATOM      5  C5  UNL d   1       1.980   1.702   2.828  0.00  0.00     0.033 A 
ATOM      6  C6  UNL d   1       1.405   0.682   2.064  0.00  0.00    -0.057 A 
ENDROOT
BRANCH   1   7
ATOM      7  N   UNL d   1       0.874  -0.358  -0.039  0.00  0.00    -0.732 N 
ATOM      8  C   UNL d   1      -0.276  -0.020  -0.849  0.00  0.00     0.284 C 
ATOM      9  H3  UNL d   1       1.502  -1.033  -0.469  0.00  0.00     0.395 HD
ENDBRANCH   1   7
TORSDOF 1
ENDMDL
