MODEL 1
REMARK minimizedAffinity -1.59484661
REMARK minimizedRMSD -1
REMARK  1 active torsions:
REMARK  status: ('A' for Active; 'I' for Inactive)
REMARK    1  A    between atoms: N_2  and  C1_3 
ROOT
ATOM      1  C1  UNL d   1       0.899   0.583   2.095  0.00  0.00     0.143 A 
ATOM      2  C2  UNL d   1      -0.340   0.591   2.746  0.00  0.00    -0.057 A 
ATOM      3  C3  UNL d   1      -1.165  -0.539   2.750  0.00  0.00     0.033 A 
ATOM      4  C4  UNL d   1      -0.778  -1.693   2.075  0.00  0.00    -0.042 A 
ATOM      5  C5  UNL d   1       0.437  -1.715   1.401  0.00  0.00     0.033 A 
ATOM      6  C6  UNL d   1       1.260  -0.585   1.406  0.00  0.00    -0.057 A 
ENDROOT
BRANCH   1   7
ATOM      7  N   UNL d   1       1.720   1.707   1.972  0.00  0.00    -0.732 N 
ATOM      8  C   UNL d   1       2.479   1.936   0.762  0.00  0.00     0.284 C 
ATOM      9  H3  UNL d   1       1.292   2.545   2.359  0.00  0.00     0.395 HD
ENDBRANCH   1   7
TORSDOF 1
ENDMDL
