MODEL 1
REMARK minimizedAffinity 3.01576161
REMARK minimizedRMSD -1
REMARK  1 active torsions:
REMARK  status: ('A' for Active; 'I' for Inactive)
REMARK    1  A    between atoms: C3_4  and  O_7 
ROOT
ATOM      1  C   UNL d   1       3.461  -3.972   0.983  0.00  0.00    -0.033 A 
ATOM      2  C1  UNL d   1       2.750  -5.076   1.458  0.00  0.00     0.039 A 
ATOM      3  C2  UNL d   1       1.356  -5.031   1.534  0.00  0.00    -0.080 A 
ATOM      4  C3  UNL d   1       0.687  -3.878   1.132  0.00  0.00     0.150 A 
ATOM      5  C4  UNL d   1       1.389  -2.776   0.654  0.00  0.00    -0.007 A 
ATOM      6  C5  UNL d   1       2.780  -2.823   0.580  0.00  0.00     0.039 A 
ENDROOT
BRANCH   4   7
ATOM      7  O   UNL d   1      -0.672  -3.786   1.193  0.00  0.00    -0.526 OA
ATOM      8  H5  UNL d   1      -1.020  -4.611   1.569  0.00  0.00     0.418 HD
ENDBRANCH   4   7
TORSDOF 1
ENDMDL
