MODEL 1
REMARK minimizedAffinity 2.4097085
REMARK minimizedRMSD -1
REMARK  1 active torsions:
REMARK  status: ('A' for Active; 'I' for Inactive)
REMARK    1  A    between atoms: C3_4  and  O_7 
ROOT
ATOM      1  C   UNL d   1      -0.094   3.471  -5.583  0.00  0.00    -0.033 A 
ATOM      2  C1  UNL d   1      -0.221   2.273  -4.878  0.00  0.00     0.039 A 
ATOM      3  C2  UNL d   1      -1.336   2.053  -4.066  0.00  0.00    -0.080 A 
ATOM      4  C3  UNL d   1      -2.315   3.038  -3.970  0.00  0.00     0.150 A 
ATOM      5  C4  UNL d   1      -2.197   4.232  -4.673  0.00  0.00    -0.007 A 
ATOM      6  C5  UNL d   1      -1.082   4.450  -5.482  0.00  0.00     0.039 A 
ENDROOT
BRANCH   4   7
ATOM      7  O   UNL d   1      -3.419   2.871  -3.187  0.00  0.00    -0.526 OA
ATOM      8  H5  UNL d   1      -3.351   2.012  -2.739  0.00  0.00     0.418 HD
ENDBRANCH   4   7
TORSDOF 1
ENDMDL
