MODEL 1
REMARK minimizedAffinity -0.106756978
REMARK minimizedRMSD -1
REMARK  1 active torsions:
REMARK  status: ('A' for Active; 'I' for Inactive)
REMARK    1  A    between atoms: C3_4  and  O_7 
ROOT
ATOM      1  C   UNL d   1      -0.636  -1.911   1.928  0.00  0.00    -0.033 A 
ATOM      2  C1  UNL d   1      -0.672  -3.150   1.286  0.00  0.00     0.039 A 
ATOM      3  C2  UNL d   1       0.429  -3.588   0.546  0.00  0.00    -0.080 A 
ATOM      4  C3  UNL d   1       1.558  -2.778   0.458  0.00  0.00     0.150 A 
ATOM      5  C4  UNL d   1       1.602  -1.544   1.099  0.00  0.00    -0.007 A 
ATOM      6  C5  UNL d   1       0.501  -1.109   1.836  0.00  0.00     0.039 A 
ENDROOT
BRANCH   4   7
ATOM      7  O   UNL d   1       2.654  -3.160  -0.256  0.00  0.00    -0.526 OA
ATOM      8  H5  UNL d   1       2.469  -4.021  -0.667  0.00  0.00     0.418 HD
ENDBRANCH   4   7
TORSDOF 1
ENDMDL
