MODEL 1
REMARK minimizedAffinity 0.895154715
REMARK minimizedRMSD -1
REMARK  1 active torsions:
REMARK  status: ('A' for Active; 'I' for Inactive)
REMARK    1  A    between atoms: C3_4  and  O_7 
ROOT
ATOM      1  C   UNL d   1      -3.167   1.768  -3.285  0.00  0.00    -0.033 A 
ATOM      2  C1  UNL d   1      -3.999   2.790  -3.746  0.00  0.00     0.039 A 
ATOM      3  C2  UNL d   1      -3.457   3.871  -4.445  0.00  0.00    -0.080 A 
ATOM      4  C3  UNL d   1      -2.085   3.917  -4.676  0.00  0.00     0.150 A 
ATOM      5  C4  UNL d   1      -1.251   2.900  -4.223  0.00  0.00    -0.007 A 
ATOM      6  C5  UNL d   1      -1.794   1.822  -3.525  0.00  0.00     0.039 A 
ENDROOT
BRANCH   4   7
ATOM      7  O   UNL d   1      -1.510   4.954  -5.349  0.00  0.00    -0.526 OA
ATOM      8  H5  UNL d   1      -2.203   5.595  -5.576  0.00  0.00     0.418 HD
ENDBRANCH   4   7
TORSDOF 1
ENDMDL
