MODEL 1
REMARK minimizedAffinity 4.19180107
REMARK minimizedRMSD -1
REMARK  1 active torsions:
REMARK  status: ('A' for Active; 'I' for Inactive)
REMARK    1  A    between atoms: C3_4  and  O_7 
ROOT
ATOM      1  C   UNL d   1       5.381   4.664   4.656  0.00  0.00    -0.033 A 
ATOM      2  C1  UNL d   1       4.293   4.170   3.933  0.00  0.00     0.039 A 
ATOM      3  C2  UNL d   1       2.998   4.589   4.245  0.00  0.00    -0.080 A 
ATOM      4  C3  UNL d   1       2.805   5.501   5.278  0.00  0.00     0.150 A 
ATOM      5  C4  UNL d   1       3.884   6.000   6.000  0.00  0.00    -0.007 A 
ATOM      6  C5  UNL d   1       5.176   5.580   5.688  0.00  0.00     0.039 A 
ENDROOT
BRANCH   4   7
ATOM      7  O   UNL d   1       1.559   5.935   5.622  0.00  0.00    -0.526 OA
ATOM      8  H5  UNL d   1       0.909   5.484   5.057  0.00  0.00     0.418 HD
ENDBRANCH   4   7
TORSDOF 1
ENDMDL
