MODEL 1
REMARK minimizedAffinity 8.0196867
REMARK minimizedRMSD -1
REMARK  1 active torsions:
REMARK  status: ('A' for Active; 'I' for Inactive)
REMARK    1  A    between atoms: C3_4  and  O_7 
ROOT
ATOM      1  C   UNL d   1       5.877  -3.784   0.403  0.00  0.00    -0.033 A 
ATOM      2  C1  UNL d   1       5.093  -4.909   0.665  0.00  0.00     0.039 A 
ATOM      3  C2  UNL d   1       3.701  -4.822   0.600  0.00  0.00    -0.080 A 
ATOM      4  C3  UNL d   1       3.107  -3.607   0.272  0.00  0.00     0.150 A 
ATOM      5  C4  UNL d   1       3.882  -2.483   0.007  0.00  0.00    -0.007 A 
ATOM      6  C5  UNL d   1       5.271  -2.571   0.073  0.00  0.00     0.039 A 
ENDROOT
BRANCH   4   7
ATOM      7  O   UNL d   1       1.752  -3.473   0.201  0.00  0.00    -0.526 OA
ATOM      8  H5  UNL d   1       1.345  -4.323   0.437  0.00  0.00     0.418 HD
ENDBRANCH   4   7
TORSDOF 1
ENDMDL
