MODEL 1
REMARK minimizedAffinity 0.13490206
REMARK minimizedRMSD -1
REMARK  1 active torsions:
REMARK  status: ('A' for Active; 'I' for Inactive)
REMARK    1  A    between atoms: C3_4  and  O_7 
ROOT
ATOM      1  C   UNL d   1       1.392   1.417  -5.256  0.00  0.00    -0.033 A 
ATOM      2  C1  UNL d   1       1.207   2.693  -5.794  0.00  0.00     0.039 A 
ATOM      3  C2  UNL d   1      -0.000   3.366  -5.598  0.00  0.00    -0.080 A 
ATOM      4  C3  UNL d   1      -1.013   2.754  -4.864  0.00  0.00     0.150 A 
ATOM      5  C4  UNL d   1      -0.834   1.485  -4.323  0.00  0.00    -0.007 A 
ATOM      6  C5  UNL d   1       0.373   0.814  -4.520  0.00  0.00     0.039 A 
ENDROOT
BRANCH   4   7
ATOM      7  O   UNL d   1      -2.210   3.369  -4.651  0.00  0.00    -0.526 OA
ATOM      8  H5  UNL d   1      -2.201   4.227  -5.108  0.00  0.00     0.418 HD
ENDBRANCH   4   7
TORSDOF 1
ENDMDL
