MODEL 1
REMARK minimizedAffinity 6.60393286
REMARK minimizedRMSD -1
REMARK  1 active torsions:
REMARK  status: ('A' for Active; 'I' for Inactive)
REMARK    1  A    between atoms: C3_4  and  O_7 
ROOT
ATOM      1  C   UNL d   1       0.897   3.373  -5.998  0.00  0.00    -0.033 A 
ATOM      2  C1  UNL d   1       0.576   2.230  -5.262  0.00  0.00     0.039 A 
ATOM      3  C2  UNL d   1      -0.602   2.188  -4.514  0.00  0.00    -0.080 A 
ATOM      4  C3  UNL d   1      -1.450   3.292  -4.511  0.00  0.00     0.150 A 
ATOM      5  C4  UNL d   1      -1.139   4.431  -5.245  0.00  0.00    -0.007 A 
ATOM      6  C5  UNL d   1       0.038   4.473  -5.991  0.00  0.00     0.039 A 
ENDROOT
BRANCH   4   7
ATOM      7  O   UNL d   1      -2.608   3.298  -3.793  0.00  0.00    -0.526 OA
ATOM      8  H5  UNL d   1      -2.678   2.456  -3.313  0.00  0.00     0.418 HD
ENDBRANCH   4   7
TORSDOF 1
ENDMDL
