MODEL 1
REMARK minimizedAffinity 4.44793606
REMARK minimizedRMSD -1
REMARK  1 active torsions:
REMARK  status: ('A' for Active; 'I' for Inactive)
REMARK    1  A    between atoms: C3_4  and  O_7 
ROOT
ATOM      1  C   UNL d   1       1.241   3.292  -5.884  0.00  0.00    -0.033 A 
ATOM      2  C1  UNL d   1       0.829   2.255  -5.045  0.00  0.00     0.039 A 
ATOM      3  C2  UNL d   1      -0.354   2.377  -4.312  0.00  0.00    -0.080 A 
ATOM      4  C3  UNL d   1      -1.114   3.537  -4.429  0.00  0.00     0.150 A 
ATOM      5  C4  UNL d   1      -0.710   4.572  -5.266  0.00  0.00    -0.007 A 
ATOM      6  C5  UNL d   1       0.471   4.449  -5.996  0.00  0.00     0.039 A 
ENDROOT
BRANCH   4   7
ATOM      7  O   UNL d   1      -2.273   3.704  -3.730  0.00  0.00    -0.526 OA
ATOM      8  H5  UNL d   1      -2.410   2.921  -3.172  0.00  0.00     0.418 HD
ENDBRANCH   4   7
TORSDOF 1
ENDMDL
