MODEL 1
REMARK minimizedAffinity -2.30368948
REMARK minimizedRMSD -1
REMARK  1 active torsions:
REMARK  status: ('A' for Active; 'I' for Inactive)
REMARK    1  A    between atoms: C3_4  and  O_7 
ROOT
ATOM      1  C   UNL d   1      -0.863   0.090   2.144  0.00  0.00    -0.033 A 
ATOM      2  C1  UNL d   1       0.447   0.435   1.804  0.00  0.00     0.039 A 
ATOM      3  C2  UNL d   1       1.269  -0.491   1.158  0.00  0.00    -0.080 A 
ATOM      4  C3  UNL d   1       0.770  -1.755   0.857  0.00  0.00     0.150 A 
ATOM      5  C4  UNL d   1      -0.535  -2.104   1.189  0.00  0.00    -0.007 A 
ATOM      6  C5  UNL d   1      -1.354  -1.179   1.835  0.00  0.00     0.039 A 
ENDROOT
BRANCH   4   7
ATOM      7  O   UNL d   1       1.537  -2.693   0.232  0.00  0.00    -0.526 OA
ATOM      8  H5  UNL d   1       2.423  -2.321   0.090  0.00  0.00     0.418 HD
ENDBRANCH   4   7
TORSDOF 1
ENDMDL
