MODEL 1
REMARK minimizedAffinity 5.73748398
REMARK minimizedRMSD -1
REMARK  1 active torsions:
REMARK  status: ('A' for Active; 'I' for Inactive)
REMARK    1  A    between atoms: C3_4  and  O_7 
ROOT
ATOM      1  C   UNL d   1      -3.904   2.341  -0.954  0.00  0.00    -0.033 A 
ATOM      2  C1  UNL d   1      -4.191   1.996  -2.276  0.00  0.00     0.039 A 
ATOM      3  C2  UNL d   1      -3.344   2.410  -3.306  0.00  0.00    -0.080 A 
ATOM      4  C3  UNL d   1      -2.216   3.166  -3.001  0.00  0.00     0.150 A 
ATOM      5  C4  UNL d   1      -1.922   3.510  -1.686  0.00  0.00    -0.007 A 
ATOM      6  C5  UNL d   1      -2.769   3.096  -0.658  0.00  0.00     0.039 A 
ENDROOT
BRANCH   4   7
ATOM      7  O   UNL d   1      -1.363   3.597  -3.973  0.00  0.00    -0.526 OA
ATOM      8  H5  UNL d   1      -1.707   3.309  -4.835  0.00  0.00     0.418 HD
ENDBRANCH   4   7
TORSDOF 1
ENDMDL
