MODEL 1
REMARK minimizedAffinity 2.33879352
REMARK minimizedRMSD -1
REMARK  0 active torsions:
REMARK  status: ('A' for Active; 'I' for Inactive)
ROOT
ATOM      1  C2' OXE d   1      -1.520   3.756  -0.382  0.00  0.00     0.078 C 
ATOM      2  C1' OXE d   1      -2.718   2.286   1.688  0.00  0.00     0.078 C 
ATOM      3  C1  OXE d   1      -3.375   3.577   1.271  0.00  0.00    -0.078 A 
ATOM      4  C2  OXE d   1      -2.756   4.314   0.289  0.00  0.00    -0.078 A 
ATOM      5  C3  OXE d   1      -3.350   5.486  -0.171  0.00  0.00     0.003 A 
ATOM      6  C4  OXE d   1      -4.488   6.000   0.462  0.00  0.00    -0.002 A 
ATOM      7  C5  OXE d   1      -5.112   5.286   1.491  0.00  0.00    -0.002 A 
ATOM      8  C6  OXE d   1      -4.593   4.055   1.877  0.00  0.00     0.003 A 
ENDROOT
TORSDOF 0
ENDMDL
