MODEL 1
REMARK minimizedAffinity 6.47455549
REMARK minimizedRMSD -1
REMARK  0 active torsions:
REMARK  status: ('A' for Active; 'I' for Inactive)
ROOT
ATOM      1  C2' OXE d   1      -2.063   3.005  -1.555  0.00  0.00     0.078 C 
ATOM      2  C1' OXE d   1       0.381   1.865  -0.775  0.00  0.00     0.078 C 
ATOM      3  C1  OXE d   1       0.376   3.324  -1.156  0.00  0.00    -0.078 A 
ATOM      4  C2  OXE d   1      -0.815   3.862  -1.581  0.00  0.00    -0.078 A 
ATOM      5  C3  OXE d   1      -0.888   5.217  -1.892  0.00  0.00     0.003 A 
ATOM      6  C4  OXE d   1       0.272   6.000  -1.924  0.00  0.00    -0.002 A 
ATOM      7  C5  OXE d   1       1.503   5.462  -1.533  0.00  0.00    -0.002 A 
ATOM      8  C6  OXE d   1       1.564   4.140  -1.107  0.00  0.00     0.003 A 
ENDROOT
TORSDOF 0
ENDMDL
