MODEL 1
REMARK minimizedAffinity 5.47524405
REMARK minimizedRMSD -1
REMARK  0 active torsions:
REMARK  status: ('A' for Active; 'I' for Inactive)
ROOT
ATOM      1  C2' OXE d   1       4.822  -2.857  -0.581  0.00  0.00     0.078 C 
ATOM      2  C1' OXE d   1       5.694  -2.431   2.053  0.00  0.00     0.078 C 
ATOM      3  C1  OXE d   1       4.284  -2.024   1.704  0.00  0.00    -0.078 A 
ATOM      4  C2  OXE d   1       3.882  -2.193   0.401  0.00  0.00    -0.078 A 
ATOM      5  C3  OXE d   1       2.574  -1.884   0.038  0.00  0.00     0.003 A 
ATOM      6  C4  OXE d   1       1.713  -1.261   0.950  0.00  0.00    -0.002 A 
ATOM      7  C5  OXE d   1       2.116  -1.044   2.272  0.00  0.00    -0.002 A 
ATOM      8  C6  OXE d   1       3.381  -1.457   2.675  0.00  0.00     0.003 A 
ENDROOT
TORSDOF 0
ENDMDL
