MODEL 1
REMARK minimizedAffinity 6.85721064
REMARK minimizedRMSD -1
REMARK  0 active torsions:
REMARK  status: ('A' for Active; 'I' for Inactive)
ROOT
ATOM      1  C2' OXE d   1       3.316  -2.219   4.369  0.00  0.00     0.078 C 
ATOM      2  C1' OXE d   1       2.069  -0.634   2.417  0.00  0.00     0.078 C 
ATOM      3  C1  OXE d   1       3.185  -1.546   1.975  0.00  0.00    -0.078 A 
ATOM      4  C2  OXE d   1       3.821  -2.283   2.944  0.00  0.00    -0.078 A 
ATOM      5  C3  OXE d   1       4.821  -3.181   2.582  0.00  0.00     0.003 A 
ATOM      6  C4  OXE d   1       5.290  -3.227   1.264  0.00  0.00    -0.002 A 
ATOM      7  C5  OXE d   1       4.683  -2.455   0.268  0.00  0.00    -0.002 A 
ATOM      8  C6  OXE d   1       3.604  -1.642   0.598  0.00  0.00     0.003 A 
ENDROOT
TORSDOF 0
ENDMDL
