MODEL 1
REMARK minimizedAffinity 6.70840406
REMARK minimizedRMSD -1
REMARK  0 active torsions:
REMARK  status: ('A' for Active; 'I' for Inactive)
ROOT
ATOM      1  C2' OXE d   1      -2.215   2.946  -1.508  0.00  0.00     0.078 C 
ATOM      2  C1' OXE d   1       0.313   1.863  -0.944  0.00  0.00     0.078 C 
ATOM      3  C1  OXE d   1       0.240   3.322  -1.319  0.00  0.00    -0.078 A 
ATOM      4  C2  OXE d   1      -0.995   3.832  -1.639  0.00  0.00    -0.078 A 
ATOM      5  C3  OXE d   1      -1.126   5.185  -1.939  0.00  0.00     0.003 A 
ATOM      6  C4  OXE d   1       0.008   5.996  -2.068  0.00  0.00    -0.002 A 
ATOM      7  C5  OXE d   1       1.280   5.486  -1.785  0.00  0.00    -0.002 A 
ATOM      8  C6  OXE d   1       1.409   4.166  -1.369  0.00  0.00     0.003 A 
ENDROOT
TORSDOF 0
ENDMDL
