MODEL 1
REMARK minimizedAffinity -4.66368008
REMARK minimizedRMSD -1
REMARK  3 active torsions:
REMARK  status: ('A' for Active; 'I' for Inactive)
REMARK    1  A    between atoms: C3'_2  and  C2'_3 
REMARK    2  A    between atoms: C2'_3  and  C1'_4 
REMARK    3  A    between atoms: C1'_4  and  C1_5 
ROOT
ATOM      1  C1  N4B d   1      -0.251  -0.277   0.949  0.00  0.00    -0.075 A 
ATOM      2  C2  N4B d   1       1.044   0.248   1.153  0.00  0.00     0.002 A 
ATOM      3  C3  N4B d   1       1.805  -0.190   2.208  0.00  0.00     0.002 A 
ATOM      4  C4  N4B d   1       1.287  -1.136   3.081  0.00  0.00    -0.004 A 
ATOM      5  C5  N4B d   1       0.046  -1.657   2.862  0.00  0.00     0.002 A 
ATOM      6  C6  N4B d   1      -0.728  -1.229   1.803  0.00  0.00     0.002 A 
ENDROOT
BRANCH   1   7
ATOM      7  C1' N4B d   1      -1.153   0.233  -0.141  0.00  0.00     0.057 C 
BRANCH   7   8
ATOM      8  C2' N4B d   1      -0.323   0.500  -1.393  0.00  0.00     0.009 C 
BRANCH   8   9
ATOM      9  C3' N4B d   1      -1.080   1.340  -2.408  0.00  0.00     0.004 C 
ATOM     10  C4' N4B d   1      -0.302   2.537  -2.868  0.00  0.00     0.003 C 
ENDBRANCH   8   9
ENDBRANCH   7   8
ENDBRANCH   1   7
TORSDOF 3
ENDMDL
