MODEL 1
REMARK minimizedAffinity -3.81932282
REMARK minimizedRMSD -1
REMARK  3 active torsions:
REMARK  status: ('A' for Active; 'I' for Inactive)
REMARK    1  A    between atoms: C3'_2  and  C2'_3 
REMARK    2  A    between atoms: C2'_3  and  C1'_4 
REMARK    3  A    between atoms: C1'_4  and  C1_5 
ROOT
ATOM      1  C1  N4B d   1       0.069   0.057   0.671  0.00  0.00    -0.075 A 
ATOM      2  C2  N4B d   1       1.448   0.095   0.368  0.00  0.00     0.002 A 
ATOM      3  C3  N4B d   1       2.350  -0.524   1.198  0.00  0.00     0.002 A 
ATOM      4  C4  N4B d   1       1.901  -1.168   2.341  0.00  0.00    -0.004 A 
ATOM      5  C5  N4B d   1       0.565  -1.222   2.612  0.00  0.00     0.002 A 
ATOM      6  C6  N4B d   1      -0.354  -0.608   1.785  0.00  0.00     0.002 A 
ENDROOT
BRANCH   1   7
ATOM      7  C1' N4B d   1      -0.947   0.792  -0.160  0.00  0.00     0.057 C 
BRANCH   7   8
ATOM      8  C2' N4B d   1      -0.507   0.774  -1.621  0.00  0.00     0.009 C 
BRANCH   8   9
ATOM      9  C3' N4B d   1      -0.239   2.172  -2.151  0.00  0.00     0.004 C 
ATOM     10  C4' N4B d   1      -1.423   2.762  -2.858  0.00  0.00     0.003 C 
ENDBRANCH   8   9
ENDBRANCH   7   8
ENDBRANCH   1   7
TORSDOF 3
ENDMDL
