MODEL 1
REMARK minimizedAffinity -5.76338673
REMARK minimizedRMSD -1
REMARK  3 active torsions:
REMARK  status: ('A' for Active; 'I' for Inactive)
REMARK    1  A    between atoms: C3'_2  and  C2'_3 
REMARK    2  A    between atoms: C2'_3  and  C1'_4 
REMARK    3  A    between atoms: C1'_4  and  C1_5 
ROOT
ATOM      1  C1  N4B d   1       0.205  -0.457   0.483  0.00  0.00    -0.075 A 
ATOM      2  C2  N4B d   1       1.375  -0.879  -0.185  0.00  0.00     0.002 A 
ATOM      3  C3  N4B d   1       2.364  -1.532   0.509  0.00  0.00     0.002 A 
ATOM      4  C4  N4B d   1       2.214  -1.756   1.869  0.00  0.00    -0.004 A 
ATOM      5  C5  N4B d   1       1.069  -1.368   2.502  0.00  0.00     0.002 A 
ATOM      6  C6  N4B d   1       0.065  -0.715   1.816  0.00  0.00     0.002 A 
ENDROOT
BRANCH   1   7
ATOM      7  C1' N4B d   1      -0.866   0.336  -0.215  0.00  0.00     0.057 C 
BRANCH   7   8
ATOM      8  C2' N4B d   1      -0.362   0.752  -1.594  0.00  0.00     0.009 C 
BRANCH   8   9
ATOM      9  C3' N4B d   1      -1.256   1.801  -2.232  0.00  0.00     0.004 C 
ATOM     10  C4' N4B d   1      -0.497   3.014  -2.684  0.00  0.00     0.003 C 
ENDBRANCH   8   9
ENDBRANCH   7   8
ENDBRANCH   1   7
TORSDOF 3
ENDMDL
