MODEL 1
REMARK minimizedAffinity -4.39225054
REMARK minimizedRMSD -1
REMARK  0 active torsions:
REMARK  status: ('A' for Active; 'I' for Inactive)
ROOT
ATOM      1  C   UNL d   1      -1.345   1.368   2.667  0.00  0.00    -0.002 A 
ATOM      2  C1  UNL d   1      -1.890   1.115   1.416  0.00  0.00     0.010 A 
ATOM      3  C2  UNL d   1      -1.210   0.318   0.493  0.00  0.00     0.041 A 
ATOM      4  C3  UNL d   1       0.038  -0.227   0.852  0.00  0.00    -0.075 A 
ATOM      5  S   UNL d   1       1.050  -1.233  -0.116  0.00  0.00     0.015 SA
ATOM      6  C4  UNL d   1       2.229  -1.352   1.109  0.00  0.00     0.022 A 
ATOM      7  C5  UNL d   1       1.876  -0.647   2.235  0.00  0.00     0.026 A 
ATOM      8  C6  UNL d   1       0.607   0.012   2.106  0.00  0.00    -0.082 A 
ATOM      9  C7  UNL d   1      -0.106   0.825   3.020  0.00  0.00     0.045 A 
ENDROOT
TORSDOF 0
ENDMDL
