MODEL 1
REMARK minimizedAffinity -2.47758675
REMARK minimizedRMSD -1
REMARK  0 active torsions:
REMARK  status: ('A' for Active; 'I' for Inactive)
ROOT
ATOM      1  C   UNL d   1      -1.408   1.023   2.966  0.00  0.00    -0.002 A 
ATOM      2  C1  UNL d   1      -0.196   1.687   2.844  0.00  0.00     0.010 A 
ATOM      3  C2  UNL d   1       0.601   1.508   1.712  0.00  0.00     0.041 A 
ATOM      4  C3  UNL d   1       0.154   0.643   0.693  0.00  0.00    -0.075 A 
ATOM      5  S   UNL d   1       0.963   0.271  -0.783  0.00  0.00     0.015 SA
ATOM      6  C4  UNL d   1      -0.283  -0.777  -1.288  0.00  0.00     0.022 A 
ATOM      7  C5  UNL d   1      -1.298  -0.853  -0.364  0.00  0.00     0.026 A 
ATOM      8  C6  UNL d   1      -1.063  -0.035   0.792  0.00  0.00    -0.082 A 
ATOM      9  C7  UNL d   1      -1.848   0.166   1.953  0.00  0.00     0.045 A 
ENDROOT
TORSDOF 0
ENDMDL
