MODEL 1
REMARK minimizedAffinity 1.8159498
REMARK minimizedRMSD -1
REMARK  1 active torsions:
REMARK  status: ('A' for Active; 'I' for Inactive)
REMARK    1  A    between atoms: C1_2  and  C2_3 
ROOT
ATOM      1  C2  UNL d   1      -0.536   0.798   2.038  0.00  0.00    -0.073 A 
ATOM      2  C3  UNL d   1      -1.379   1.775   2.580  0.00  0.00    -0.002 A 
ATOM      3  C4  UNL d   1      -2.700   1.886   2.146  0.00  0.00     0.004 A 
ATOM      4  C5  UNL d   1      -3.194   1.019   1.171  0.00  0.00    -0.004 A 
ATOM      5  C6  UNL d   1      -2.370   0.029   0.625  0.00  0.00    -0.075 A 
ATOM      6  C7  UNL d   1      -2.886  -0.909  -0.426  0.00  0.00     0.076 C 
ATOM      7  C8  UNL d   1      -1.044  -0.074   1.064  0.00  0.00     0.001 A 
ENDROOT
BRANCH   1   8
ATOM      8  C1  UNL d   1       0.890   0.670   2.508  0.00  0.00     0.053 C 
ATOM      9  C   UNL d   1       1.440  -0.730   2.286  0.00  0.00     0.018 C 
ENDBRANCH   1   8
TORSDOF 1
ENDMDL
