MODEL 1
REMARK minimizedAffinity 5.85167027
REMARK minimizedRMSD -1
REMARK  1 active torsions:
REMARK  status: ('A' for Active; 'I' for Inactive)
REMARK    1  A    between atoms: C1_2  and  C2_3 
ROOT
ATOM      1  C2  UNL d   1       3.038   1.050   0.229  0.00  0.00    -0.073 A 
ATOM      2  C3  UNL d   1       1.915   0.485   0.844  0.00  0.00    -0.002 A 
ATOM      3  C4  UNL d   1       2.051  -0.240   2.029  0.00  0.00     0.004 A 
ATOM      4  C5  UNL d   1       3.307  -0.402   2.613  0.00  0.00    -0.004 A 
ATOM      5  C6  UNL d   1       4.439   0.164   2.019  0.00  0.00    -0.075 A 
ATOM      6  C7  UNL d   1       5.798  -0.003   2.633  0.00  0.00     0.076 C 
ATOM      7  C8  UNL d   1       4.295   0.889   0.828  0.00  0.00     0.001 A 
ENDROOT
BRANCH   1   8
ATOM      8  C1  UNL d   1       2.896   1.839  -1.047  0.00  0.00     0.053 C 
ATOM      9  C   UNL d   1       3.336   1.040  -2.264  0.00  0.00     0.018 C 
ENDBRANCH   1   8
TORSDOF 1
ENDMDL
