MODEL 1
REMARK minimizedAffinity 0.0169638451
REMARK minimizedRMSD -1
REMARK  1 active torsions:
REMARK  status: ('A' for Active; 'I' for Inactive)
REMARK    1  A    between atoms: C1_2  and  C2_3 
ROOT
ATOM      1  C2  UNL d   1      -3.878  -2.371   4.769  0.00  0.00    -0.073 A 
ATOM      2  C3  UNL d   1      -4.513  -3.612   4.884  0.00  0.00    -0.002 A 
ATOM      3  C4  UNL d   1      -4.893  -4.319   3.743  0.00  0.00     0.004 A 
ATOM      4  C5  UNL d   1      -4.636  -3.796   2.475  0.00  0.00    -0.004 A 
ATOM      5  C6  UNL d   1      -3.992  -2.562   2.339  0.00  0.00    -0.075 A 
ATOM      6  C7  UNL d   1      -3.710  -1.985   0.983  0.00  0.00     0.076 C 
ATOM      7  C8  UNL d   1      -3.615  -1.858   3.490  0.00  0.00     0.001 A 
ENDROOT
BRANCH   1   8
ATOM      8  C1  UNL d   1      -3.460  -1.607   5.998  0.00  0.00     0.053 C 
ATOM      9  C   UNL d   1      -4.002  -0.187   5.999  0.00  0.00     0.018 C 
ENDBRANCH   1   8
TORSDOF 1
ENDMDL
