MODEL 1
REMARK minimizedAffinity 4.75671959
REMARK minimizedRMSD -1
REMARK  1 active torsions:
REMARK  status: ('A' for Active; 'I' for Inactive)
REMARK    1  A    between atoms: C1_2  and  C2_3 
ROOT
ATOM      1  C2  UNL d   1       1.196   0.331   0.787  0.00  0.00    -0.073 A 
ATOM      2  C3  UNL d   1      -0.103  -0.184   0.710  0.00  0.00    -0.002 A 
ATOM      3  C4  UNL d   1      -1.079   0.225   1.619  0.00  0.00     0.004 A 
ATOM      4  C5  UNL d   1      -0.769   1.158   2.609  0.00  0.00    -0.004 A 
ATOM      5  C6  UNL d   1       0.520   1.694   2.694  0.00  0.00    -0.075 A 
ATOM      6  C7  UNL d   1       0.871   2.697   3.754  0.00  0.00     0.076 C 
ATOM      7  C8  UNL d   1       1.496   1.276   1.779  0.00  0.00     0.001 A 
ENDROOT
BRANCH   1   8
ATOM      8  C1  UNL d   1       2.252  -0.103  -0.197  0.00  0.00     0.053 C 
ATOM      9  C   UNL d   1       3.635  -0.145   0.432  0.00  0.00     0.018 C 
ENDBRANCH   1   8
TORSDOF 1
ENDMDL
