MODEL 1
REMARK minimizedAffinity 9.63900852
REMARK minimizedRMSD -1
REMARK  1 active torsions:
REMARK  status: ('A' for Active; 'I' for Inactive)
REMARK    1  A    between atoms: C1_2  and  C2_3 
ROOT
ATOM      1  C2  UNL d   1      -2.887   1.368   2.773  0.00  0.00    -0.073 A 
ATOM      2  C3  UNL d   1      -3.723   1.142   1.674  0.00  0.00    -0.002 A 
ATOM      3  C4  UNL d   1      -3.211   0.586   0.501  0.00  0.00     0.004 A 
ATOM      4  C5  UNL d   1      -1.861   0.245   0.417  0.00  0.00    -0.004 A 
ATOM      5  C6  UNL d   1      -1.012   0.453   1.508  0.00  0.00    -0.075 A 
ATOM      6  C7  UNL d   1       0.443   0.094   1.433  0.00  0.00     0.076 C 
ATOM      7  C8  UNL d   1      -1.533   1.014   2.682  0.00  0.00     0.001 A 
ENDROOT
BRANCH   1   8
ATOM      8  C1  UNL d   1      -3.437   1.962   4.044  0.00  0.00     0.053 C 
ATOM      9  C   UNL d   1      -4.208   0.940   4.864  0.00  0.00     0.018 C 
ENDBRANCH   1   8
TORSDOF 1
ENDMDL
