MODEL 1
REMARK minimizedAffinity 4.83650637
REMARK minimizedRMSD -1
REMARK  1 active torsions:
REMARK  status: ('A' for Active; 'I' for Inactive)
REMARK    1  A    between atoms: C1_2  and  C2_3 
ROOT
ATOM      1  C2  UNL d   1      -0.381   0.589   1.513  0.00  0.00    -0.073 A 
ATOM      2  C3  UNL d   1       0.052   1.430   2.545  0.00  0.00    -0.002 A 
ATOM      3  C4  UNL d   1      -0.857   2.252   3.212  0.00  0.00     0.004 A 
ATOM      4  C5  UNL d   1      -2.206   2.237   2.860  0.00  0.00    -0.004 A 
ATOM      5  C6  UNL d   1      -2.660   1.395   1.840  0.00  0.00    -0.075 A 
ATOM      6  C7  UNL d   1      -4.108   1.368   1.448  0.00  0.00     0.076 C 
ATOM      7  C8  UNL d   1      -1.741   0.574   1.173  0.00  0.00     0.001 A 
ENDROOT
BRANCH   1   8
ATOM      8  C1  UNL d   1       0.596  -0.306   0.795  0.00  0.00     0.053 C 
ATOM      9  C   UNL d   1       1.517   0.479  -0.126  0.00  0.00     0.018 C 
ENDBRANCH   1   8
TORSDOF 1
ENDMDL
