MODEL 1
REMARK minimizedAffinity 8.75541115
REMARK minimizedRMSD -1
REMARK  1 active torsions:
REMARK  status: ('A' for Active; 'I' for Inactive)
REMARK    1  A    between atoms: C1_2  and  C2_3 
ROOT
ATOM      1  C2  UNL d   1      -3.353   1.388   2.387  0.00  0.00    -0.073 A 
ATOM      2  C3  UNL d   1      -4.407   1.131   1.503  0.00  0.00    -0.002 A 
ATOM      3  C4  UNL d   1      -5.724   1.397   1.881  0.00  0.00     0.004 A 
ATOM      4  C5  UNL d   1      -5.999   1.928   3.141  0.00  0.00    -0.004 A 
ATOM      5  C6  UNL d   1      -4.958   2.203   4.033  0.00  0.00    -0.075 A 
ATOM      6  C7  UNL d   1      -5.238   2.773   5.393  0.00  0.00     0.076 C 
ATOM      7  C8  UNL d   1      -3.639   1.931   3.648  0.00  0.00     0.001 A 
ENDROOT
BRANCH   1   8
ATOM      8  C1  UNL d   1      -1.929   1.109   1.981  0.00  0.00     0.053 C 
ATOM      9  C   UNL d   1      -1.850   0.192   0.771  0.00  0.00     0.018 C 
ENDBRANCH   1   8
TORSDOF 1
ENDMDL
