MODEL 1
REMARK minimizedAffinity 1.75635445
REMARK minimizedRMSD -1
REMARK  1 active torsions:
REMARK  status: ('A' for Active; 'I' for Inactive)
REMARK    1  A    between atoms: C1_2  and  C2_3 
ROOT
ATOM      1  C2  UNL d   1      -1.423   1.593   2.441  0.00  0.00    -0.073 A 
ATOM      2  C3  UNL d   1      -0.634   0.799   1.601  0.00  0.00    -0.002 A 
ATOM      3  C4  UNL d   1      -1.206   0.137   0.514  0.00  0.00     0.004 A 
ATOM      4  C5  UNL d   1      -2.570   0.266   0.252  0.00  0.00    -0.004 A 
ATOM      5  C6  UNL d   1      -3.373   1.065   1.072  0.00  0.00    -0.075 A 
ATOM      6  C7  UNL d   1      -4.842   1.213   0.805  0.00  0.00     0.076 C 
ATOM      7  C8  UNL d   1      -2.792   1.724   2.164  0.00  0.00     0.001 A 
ENDROOT
BRANCH   1   8
ATOM      8  C1  UNL d   1      -0.809   2.315   3.612  0.00  0.00     0.053 C 
ATOM      9  C   UNL d   1       0.682   2.042   3.731  0.00  0.00     0.018 C 
ENDBRANCH   1   8
TORSDOF 1
ENDMDL
