MODEL 1
REMARK minimizedAffinity 4.3750062
REMARK minimizedRMSD -1
REMARK  1 active torsions:
REMARK  status: ('A' for Active; 'I' for Inactive)
REMARK    1  A    between atoms: C1_2  and  C2_3 
ROOT
ATOM      1  C2  UNL d   1      -3.096   1.153   1.698  0.00  0.00    -0.073 A 
ATOM      2  C3  UNL d   1      -2.855   0.340   0.585  0.00  0.00    -0.002 A 
ATOM      3  C4  UNL d   1      -1.558  -0.082   0.288  0.00  0.00     0.004 A 
ATOM      4  C5  UNL d   1      -0.492   0.297   1.104  0.00  0.00    -0.004 A 
ATOM      5  C6  UNL d   1      -0.715   1.099   2.228  0.00  0.00    -0.075 A 
ATOM      6  C7  UNL d   1       0.421   1.517   3.114  0.00  0.00     0.076 C 
ATOM      7  C8  UNL d   1      -2.019   1.521   2.518  0.00  0.00     0.001 A 
ENDROOT
BRANCH   1   8
ATOM      8  C1  UNL d   1      -4.495   1.607   2.026  0.00  0.00     0.053 C 
ATOM      9  C   UNL d   1      -4.760   1.600   3.524  0.00  0.00     0.018 C 
ENDBRANCH   1   8
TORSDOF 1
ENDMDL
