MODEL 1
REMARK minimizedAffinity 8.97381592
REMARK minimizedRMSD -1
REMARK  1 active torsions:
REMARK  status: ('A' for Active; 'I' for Inactive)
REMARK    1  A    between atoms: C1_2  and  C2_3 
ROOT
ATOM      1  C2  UNL d   1       4.324   2.183  -5.354  0.00  0.00    -0.073 A 
ATOM      2  C3  UNL d   1       5.585   2.074  -4.758  0.00  0.00    -0.002 A 
ATOM      3  C4  UNL d   1       6.000   0.862  -4.203  0.00  0.00     0.004 A 
ATOM      4  C5  UNL d   1       5.162  -0.252  -4.244  0.00  0.00    -0.004 A 
ATOM      5  C6  UNL d   1       3.902  -0.165  -4.845  0.00  0.00    -0.075 A 
ATOM      6  C7  UNL d   1       2.988  -1.354  -4.895  0.00  0.00     0.076 C 
ATOM      7  C8  UNL d   1       3.492   1.055  -5.398  0.00  0.00     0.001 A 
ENDROOT
BRANCH   1   8
ATOM      8  C1  UNL d   1       3.874   3.487  -5.960  0.00  0.00     0.053 C 
ATOM      9  C   UNL d   1       2.416   3.788  -5.650  0.00  0.00     0.018 C 
ENDBRANCH   1   8
TORSDOF 1
ENDMDL
