MODEL 1
REMARK minimizedAffinity 10.3806124
REMARK minimizedRMSD -1
REMARK  2 active torsions:
REMARK  status: ('A' for Active; 'I' for Inactive)
REMARK    1  A    between atoms: C1_2  and  C2_3 
REMARK    2  A    between atoms: C2_3  and  C3_4 
ROOT
ATOM      1  C3  UNL d   1       1.288  -1.054   1.108  0.00  0.00    -0.075 A 
ATOM      2  C4  UNL d   1      -0.076  -0.737   1.195  0.00  0.00     0.002 A 
ATOM      3  C5  UNL d   1      -0.958  -1.119   0.184  0.00  0.00     0.002 A 
ATOM      4  C6  UNL d   1      -0.488  -1.813  -0.929  0.00  0.00    -0.004 A 
ATOM      5  C7  UNL d   1       0.867  -2.119  -1.034  0.00  0.00     0.002 A 
ATOM      6  C8  UNL d   1       1.751  -1.742  -0.022  0.00  0.00     0.002 A 
ENDROOT
BRANCH   1   7
ATOM      7  C2  UNL d   1       2.242  -0.670   2.213  0.00  0.00     0.056 C 
BRANCH   7   8
ATOM      8  C1  UNL d   1       1.794  -1.115   3.608  0.00  0.00     0.007 C 
ATOM      9  C   UNL d   1       2.643  -2.242   4.181  0.00  0.00     0.009 C 
ENDBRANCH   7   8
ENDBRANCH   1   7
TORSDOF 2
ENDMDL
