MODEL 1
REMARK minimizedAffinity 4.17867804
REMARK minimizedRMSD -1
REMARK  2 active torsions:
REMARK  status: ('A' for Active; 'I' for Inactive)
REMARK    1  A    between atoms: C1_2  and  C2_3 
REMARK    2  A    between atoms: C2_3  and  C3_4 
ROOT
ATOM      1  C3  UNL d   1       3.086  -1.484   4.147  0.00  0.00    -0.075 A 
ATOM      2  C4  UNL d   1       1.973  -2.229   3.731  0.00  0.00     0.002 A 
ATOM      3  C5  UNL d   1       1.209  -1.813   2.640  0.00  0.00     0.002 A 
ATOM      4  C6  UNL d   1       1.540  -0.644   1.959  0.00  0.00    -0.004 A 
ATOM      5  C7  UNL d   1       2.634   0.113   2.374  0.00  0.00     0.002 A 
ATOM      6  C8  UNL d   1       3.403  -0.303   3.462  0.00  0.00     0.002 A 
ENDROOT
BRANCH   1   7
ATOM      7  C2  UNL d   1       3.934  -1.944   5.308  0.00  0.00     0.056 C 
BRANCH   7   8
ATOM      8  C1  UNL d   1       5.347  -2.384   4.912  0.00  0.00     0.007 C 
ATOM      9  C   UNL d   1       5.999  -3.303   5.937  0.00  0.00     0.009 C 
ENDBRANCH   7   8
ENDBRANCH   1   7
TORSDOF 2
ENDMDL
