MODEL 1
REMARK minimizedAffinity 8.41386414
REMARK minimizedRMSD -1
REMARK  2 active torsions:
REMARK  status: ('A' for Active; 'I' for Inactive)
REMARK    1  A    between atoms: C1_2  and  C2_3 
REMARK    2  A    between atoms: C2_3  and  C3_4 
ROOT
ATOM      1  C3  UNL d   1      -5.134   2.898  -0.682  0.00  0.00    -0.075 A 
ATOM      2  C4  UNL d   1      -3.830   2.389  -0.599  0.00  0.00     0.002 A 
ATOM      3  C5  UNL d   1      -3.046   2.632   0.529  0.00  0.00     0.002 A 
ATOM      4  C6  UNL d   1      -3.550   3.393   1.582  0.00  0.00    -0.004 A 
ATOM      5  C7  UNL d   1      -4.838   3.918   1.503  0.00  0.00     0.002 A 
ATOM      6  C8  UNL d   1      -5.627   3.673   0.377  0.00  0.00     0.002 A 
ENDROOT
BRANCH   1   7
ATOM      7  C2  UNL d   1      -5.999   2.615  -1.887  0.00  0.00     0.056 C 
BRANCH   7   8
ATOM      8  C1  UNL d   1      -5.211   2.234  -3.144  0.00  0.00     0.007 C 
ATOM      9  C   UNL d   1      -5.929   2.600  -4.437  0.00  0.00     0.009 C 
ENDBRANCH   7   8
ENDBRANCH   1   7
TORSDOF 2
ENDMDL
