MODEL 1
REMARK minimizedAffinity -0.392303318
REMARK minimizedRMSD -1
REMARK  2 active torsions:
REMARK  status: ('A' for Active; 'I' for Inactive)
REMARK    1  A    between atoms: C1_2  and  C2_3 
REMARK    2  A    between atoms: C2_3  and  C3_4 
ROOT
ATOM      1  C3  UNL d   1       3.646  -1.535   3.669  0.00  0.00    -0.075 A 
ATOM      2  C4  UNL d   1       3.009  -1.737   4.902  0.00  0.00     0.002 A 
ATOM      3  C5  UNL d   1       3.724  -2.217   5.999  0.00  0.00     0.002 A 
ATOM      4  C6  UNL d   1       5.080  -2.511   5.875  0.00  0.00    -0.004 A 
ATOM      5  C7  UNL d   1       5.720  -2.331   4.650  0.00  0.00     0.002 A 
ATOM      6  C8  UNL d   1       5.007  -1.846   3.552  0.00  0.00     0.002 A 
ENDROOT
BRANCH   1   7
ATOM      7  C2  UNL d   1       2.884  -0.987   2.486  0.00  0.00     0.056 C 
BRANCH   7   8
ATOM      8  C1  UNL d   1       3.547   0.225   1.824  0.00  0.00     0.007 C 
ATOM      9  C   UNL d   1       3.042   1.556   2.365  0.00  0.00     0.009 C 
ENDBRANCH   7   8
ENDBRANCH   1   7
TORSDOF 2
ENDMDL
