MODEL 1
REMARK minimizedAffinity 0.332231313
REMARK minimizedRMSD -1
REMARK  2 active torsions:
REMARK  status: ('A' for Active; 'I' for Inactive)
REMARK    1  A    between atoms: C1_2  and  C2_3 
REMARK    2  A    between atoms: C2_3  and  C3_4 
ROOT
ATOM      1  C3  UNL d   1       3.416  -2.562   4.874  0.00  0.00    -0.075 A 
ATOM      2  C4  UNL d   1       3.059  -3.419   3.823  0.00  0.00     0.002 A 
ATOM      3  C5  UNL d   1       2.125  -3.018   2.868  0.00  0.00     0.002 A 
ATOM      4  C6  UNL d   1       1.528  -1.762   2.957  0.00  0.00    -0.004 A 
ATOM      5  C7  UNL d   1       1.863  -0.909   4.006  0.00  0.00     0.002 A 
ATOM      6  C8  UNL d   1       2.801  -1.306   4.961  0.00  0.00     0.002 A 
ENDROOT
BRANCH   1   7
ATOM      7  C2  UNL d   1       4.449  -2.978   5.894  0.00  0.00     0.056 C 
BRANCH   7   8
ATOM      8  C1  UNL d   1       5.864  -2.473   5.591  0.00  0.00     0.007 C 
ATOM      9  C   UNL d   1       6.000  -1.865   4.202  0.00  0.00     0.009 C 
ENDBRANCH   7   8
ENDBRANCH   1   7
TORSDOF 2
ENDMDL
