MODEL 1
REMARK minimizedAffinity -1.70078087
REMARK minimizedRMSD -1
REMARK  2 active torsions:
REMARK  status: ('A' for Active; 'I' for Inactive)
REMARK    1  A    between atoms: C1_2  and  C2_3 
REMARK    2  A    between atoms: C2_3  and  C3_4 
ROOT
ATOM      1  C3  UNL d   1       5.597  -0.802  -5.008  0.00  0.00    -0.075 A 
ATOM      2  C4  UNL d   1       4.814  -0.335  -3.942  0.00  0.00     0.002 A 
ATOM      3  C5  UNL d   1       4.425   1.003  -3.882  0.00  0.00     0.002 A 
ATOM      4  C6  UNL d   1       4.821   1.892  -4.879  0.00  0.00    -0.004 A 
ATOM      5  C7  UNL d   1       5.612   1.443  -5.934  0.00  0.00     0.002 A 
ATOM      6  C8  UNL d   1       5.999   0.103  -5.999  0.00  0.00     0.002 A 
ENDROOT
BRANCH   1   7
ATOM      7  C2  UNL d   1       5.996  -2.256  -5.095  0.00  0.00     0.056 C 
BRANCH   7   8
ATOM      8  C1  UNL d   1       5.070  -3.107  -5.970  0.00  0.00     0.007 C 
ATOM      9  C   UNL d   1       5.456  -4.579  -5.999  0.00  0.00     0.009 C 
ENDBRANCH   7   8
ENDBRANCH   1   7
TORSDOF 2
ENDMDL
