MODEL 1
REMARK minimizedAffinity 6.32022953
REMARK minimizedRMSD -1
REMARK  1 active torsions:
REMARK  status: ('A' for Active; 'I' for Inactive)
REMARK    1  A    between atoms: N_2  and  C1_3 
ROOT
ATOM      1  C1  UNL d   1       0.979  -1.935   1.083  0.00  0.00     0.143 A 
ATOM      2  C2  UNL d   1       1.609  -1.904  -0.166  0.00  0.00    -0.057 A 
ATOM      3  C3  UNL d   1       2.468  -2.933  -0.572  0.00  0.00     0.033 A 
ATOM      4  C4  UNL d   1       2.735  -4.000   0.279  0.00  0.00    -0.042 A 
ATOM      5  C5  UNL d   1       2.140  -4.039   1.535  0.00  0.00     0.033 A 
ATOM      6  C6  UNL d   1       1.278  -3.012   1.932  0.00  0.00    -0.057 A 
ENDROOT
BRANCH   1   7
ATOM      7  N   UNL d   1       0.193  -0.895   1.583  0.00  0.00    -0.732 N 
ATOM      8  C   UNL d   1      -1.251  -0.985   1.560  0.00  0.00     0.284 C 
ATOM      9  H3  UNL d   1       0.571  -0.500   2.441  0.00  0.00     0.395 HD
ENDBRANCH   1   7
TORSDOF 1
ENDMDL
