MODEL 1
REMARK minimizedAffinity 2.28138351
REMARK minimizedRMSD -1
REMARK  1 active torsions:
REMARK  status: ('A' for Active; 'I' for Inactive)
REMARK    1  A    between atoms: N_2  and  C1_3 
ROOT
ATOM      1  C1  UNL d   1       3.305  -4.137   0.469  0.00  0.00     0.143 A 
ATOM      2  C2  UNL d   1       3.615  -4.927   1.582  0.00  0.00    -0.057 A 
ATOM      3  C3  UNL d   1       4.943  -5.206   1.927  0.00  0.00     0.033 A 
ATOM      4  C4  UNL d   1       5.987  -4.721   1.146  0.00  0.00    -0.042 A 
ATOM      5  C5  UNL d   1       5.702  -3.955   0.021  0.00  0.00     0.033 A 
ATOM      6  C6  UNL d   1       4.374  -3.675  -0.314  0.00  0.00    -0.057 A 
ENDROOT
BRANCH   1   7
ATOM      7  N   UNL d   1       2.003  -3.906   0.018  0.00  0.00    -0.732 N 
ATOM      8  C   UNL d   1       1.426  -2.581   0.080  0.00  0.00     0.284 C 
ATOM      9  H3  UNL d   1       1.795  -4.411  -0.841  0.00  0.00     0.395 HD
ENDBRANCH   1   7
TORSDOF 1
ENDMDL
