MODEL 1
REMARK minimizedAffinity -5.52538538
REMARK minimizedRMSD -1
REMARK  1 active torsions:
REMARK  status: ('A' for Active; 'I' for Inactive)
REMARK    1  A    between atoms: N_2  and  C1_3 
ROOT
ATOM      1  C1  UNL d   1      -4.086   0.771  -3.981  0.00  0.00     0.143 A 
ATOM      2  C2  UNL d   1      -3.164   0.219  -3.086  0.00  0.00    -0.057 A 
ATOM      3  C3  UNL d   1      -2.764  -1.119  -3.187  0.00  0.00     0.033 A 
ATOM      4  C4  UNL d   1      -3.304  -1.940  -4.172  0.00  0.00    -0.042 A 
ATOM      5  C5  UNL d   1      -4.241  -1.419  -5.058  0.00  0.00     0.033 A 
ATOM      6  C6  UNL d   1      -4.631  -0.080  -4.955  0.00  0.00    -0.057 A 
ENDROOT
BRANCH   1   7
ATOM      7  N   UNL d   1      -4.597   2.066  -3.872  0.00  0.00    -0.732 N 
ATOM      8  C   UNL d   1      -3.915   3.063  -3.074  0.00  0.00     0.284 C 
ATOM      9  H3  UNL d   1      -4.958   2.417  -4.756  0.00  0.00     0.395 HD
ENDBRANCH   1   7
TORSDOF 1
ENDMDL
