MODEL 1
REMARK minimizedAffinity 3.61218047
REMARK minimizedRMSD -1
REMARK  1 active torsions:
REMARK  status: ('A' for Active; 'I' for Inactive)
REMARK    1  A    between atoms: N_2  and  C1_3 
ROOT
ATOM      1  C1  UNL d   1       2.613   1.377   1.138  0.00  0.00     0.143 A 
ATOM      2  C2  UNL d   1       1.915   0.199   0.853  0.00  0.00    -0.057 A 
ATOM      3  C3  UNL d   1       1.149  -0.446   1.831  0.00  0.00     0.033 A 
ATOM      4  C4  UNL d   1       1.092   0.062   3.125  0.00  0.00    -0.042 A 
ATOM      5  C5  UNL d   1       1.798   1.217   3.438  0.00  0.00     0.033 A 
ATOM      6  C6  UNL d   1       2.556   1.861   2.455  0.00  0.00    -0.057 A 
ENDROOT
BRANCH   1   7
ATOM      7  N   UNL d   1       3.471   2.011   0.236  0.00  0.00    -0.732 N 
ATOM      8  C   UNL d   1       4.124   1.259  -0.813  0.00  0.00     0.284 C 
ATOM      9  H3  UNL d   1       3.121   2.920  -0.060  0.00  0.00     0.395 HD
ENDBRANCH   1   7
TORSDOF 1
ENDMDL
