MODEL 1
REMARK minimizedAffinity 3.80366659
REMARK minimizedRMSD -1
REMARK  1 active torsions:
REMARK  status: ('A' for Active; 'I' for Inactive)
REMARK    1  A    between atoms: N_2  and  C1_3 
ROOT
ATOM      1  C1  UNL d   1       1.952   0.282   0.976  0.00  0.00     0.143 A 
ATOM      2  C2  UNL d   1       2.053  -0.996   0.416  0.00  0.00    -0.057 A 
ATOM      3  C3  UNL d   1       1.459  -2.106   1.029  0.00  0.00     0.033 A 
ATOM      4  C4  UNL d   1       0.776  -1.962   2.232  0.00  0.00    -0.042 A 
ATOM      5  C5  UNL d   1       0.684  -0.705   2.820  0.00  0.00     0.033 A 
ATOM      6  C6  UNL d   1       1.274   0.401   2.200  0.00  0.00    -0.057 A 
ENDROOT
BRANCH   1   7
ATOM      7  N   UNL d   1       2.604   1.408   0.467  0.00  0.00    -0.732 N 
ATOM      8  C   UNL d   1       3.787   1.266  -0.354  0.00  0.00     0.284 C 
ATOM      9  H3  UNL d   1       1.954   2.119   0.141  0.00  0.00     0.395 HD
ENDBRANCH   1   7
TORSDOF 1
ENDMDL
