MODEL 1
REMARK minimizedAffinity 2.21404624
REMARK minimizedRMSD -1
REMARK  1 active torsions:
REMARK  status: ('A' for Active; 'I' for Inactive)
REMARK    1  A    between atoms: N_2  and  C1_3 
ROOT
ATOM      1  C1  UNL d   1      -4.189   0.790  -4.419  0.00  0.00     0.143 A 
ATOM      2  C2  UNL d   1      -3.289   0.244  -5.340  0.00  0.00    -0.057 A 
ATOM      3  C3  UNL d   1      -2.783  -1.052  -5.180  0.00  0.00     0.033 A 
ATOM      4  C4  UNL d   1      -3.147  -1.816  -4.076  0.00  0.00    -0.042 A 
ATOM      5  C5  UNL d   1      -4.021  -1.284  -3.135  0.00  0.00     0.033 A 
ATOM      6  C6  UNL d   1      -4.528   0.009  -3.304  0.00  0.00    -0.057 A 
ENDROOT
BRANCH   1   7
ATOM      7  N   UNL d   1      -4.650   2.108  -4.470  0.00  0.00    -0.732 N 
ATOM      8  C   UNL d   1      -3.773   3.210  -4.138  0.00  0.00     0.284 C 
ATOM      9  H3  UNL d   1      -5.246   2.280  -5.277  0.00  0.00     0.395 HD
ENDBRANCH   1   7
TORSDOF 1
ENDMDL
