MODEL 1
REMARK minimizedAffinity 4.19471502
REMARK minimizedRMSD -1
REMARK  1 active torsions:
REMARK  status: ('A' for Active; 'I' for Inactive)
REMARK    1  A    between atoms: N_2  and  C1_3 
ROOT
ATOM      1  C1  UNL d   1      -4.400  -0.604  -3.823  0.00  0.00     0.143 A 
ATOM      2  C2  UNL d   1      -5.684  -0.120  -4.097  0.00  0.00    -0.057 A 
ATOM      3  C3  UNL d   1      -5.905   0.815  -5.116  0.00  0.00     0.033 A 
ATOM      4  C4  UNL d   1      -4.838   1.306  -5.862  0.00  0.00    -0.042 A 
ATOM      5  C5  UNL d   1      -3.550   0.857  -5.590  0.00  0.00     0.033 A 
ATOM      6  C6  UNL d   1      -3.337  -0.081  -4.576  0.00  0.00    -0.057 A 
ENDROOT
BRANCH   1   7
ATOM      7  N   UNL d   1      -4.102  -1.459  -2.760  0.00  0.00    -0.732 N 
ATOM      8  C   UNL d   1      -3.353  -0.982  -1.617  0.00  0.00     0.284 C 
ATOM      9  H3  UNL d   1      -4.882  -2.068  -2.521  0.00  0.00     0.395 HD
ENDBRANCH   1   7
TORSDOF 1
ENDMDL
