MODEL 1
REMARK minimizedAffinity -1.95578778
REMARK minimizedRMSD -1
REMARK  1 active torsions:
REMARK  status: ('A' for Active; 'I' for Inactive)
REMARK    1  A    between atoms: N_2  and  C1_3 
ROOT
ATOM      1  C1  UNL d   1       2.114   5.881   4.569  0.00  0.00     0.143 A 
ATOM      2  C2  UNL d   1       2.852   5.956   3.383  0.00  0.00    -0.057 A 
ATOM      3  C3  UNL d   1       4.251   6.000   3.400  0.00  0.00     0.033 A 
ATOM      4  C4  UNL d   1       4.938   5.999   4.609  0.00  0.00    -0.042 A 
ATOM      5  C5  UNL d   1       4.224   5.950   5.801  0.00  0.00     0.033 A 
ATOM      6  C6  UNL d   1       2.827   5.899   5.778  0.00  0.00    -0.057 A 
ENDROOT
BRANCH   1   7
ATOM      7  N   UNL d   1       0.719   5.934   4.622  0.00  0.00    -0.732 N 
ATOM      8  C   UNL d   1       0.022   5.771   5.880  0.00  0.00     0.284 C 
ATOM      9  H3  UNL d   1       0.335   6.663   4.025  0.00  0.00     0.395 HD
ENDBRANCH   1   7
TORSDOF 1
ENDMDL
