MODEL 1
REMARK minimizedAffinity 5.03162003
REMARK minimizedRMSD -1
REMARK  0 active torsions:
REMARK  status: ('A' for Active; 'I' for Inactive)
ROOT
ATOM      1  C   UNL d   1       0.014   4.459   0.780  0.00  0.00     0.172 C 
ATOM      2  N   UNL d   1      -0.728   3.269   0.437  0.00  0.00    -0.070 N 
ATOM      3  C1  UNL d   1      -2.005   2.980   0.839  0.00  0.00    -0.004 A 
ATOM      4  C2  UNL d   1      -2.350   1.759   0.303  0.00  0.00    -0.047 A 
ATOM      5  C3  UNL d   1      -1.242   1.296  -0.446  0.00  0.00    -0.047 A 
ATOM      6  C4  UNL d   1      -0.252   2.250  -0.346  0.00  0.00    -0.004 A 
ENDROOT
TORSDOF 0
ENDMDL
