MODEL 1
REMARK minimizedAffinity 2.29598713
REMARK minimizedRMSD -1
REMARK  0 active torsions:
REMARK  status: ('A' for Active; 'I' for Inactive)
ROOT
ATOM      1  C   UNL d   1       1.262  -2.288   5.229  0.00  0.00     0.172 C 
ATOM      2  N   UNL d   1       1.309  -1.880   3.845  0.00  0.00    -0.070 N 
ATOM      3  C1  UNL d   1       0.858  -0.687   3.348  0.00  0.00    -0.004 A 
ATOM      4  C2  UNL d   1       1.083  -0.683   1.989  0.00  0.00    -0.047 A 
ATOM      5  C3  UNL d   1       1.689  -1.918   1.656  0.00  0.00    -0.047 A 
ATOM      6  C4  UNL d   1       1.817  -2.640   2.824  0.00  0.00    -0.004 A 
ENDROOT
TORSDOF 0
ENDMDL
