MODEL 1
REMARK minimizedAffinity 0.547230065
REMARK minimizedRMSD -1
REMARK  0 active torsions:
REMARK  status: ('A' for Active; 'I' for Inactive)
ROOT
ATOM      1  C   UNL d   1      -5.226   0.529  -5.154  0.00  0.00     0.172 C 
ATOM      2  N   UNL d   1      -4.916   1.928  -5.334  0.00  0.00    -0.070 N 
ATOM      3  C1  UNL d   1      -5.667   2.977  -4.876  0.00  0.00    -0.004 A 
ATOM      4  C2  UNL d   1      -5.035   4.144  -5.250  0.00  0.00    -0.047 A 
ATOM      5  C3  UNL d   1      -3.864   3.783  -5.958  0.00  0.00    -0.047 A 
ATOM      6  C4  UNL d   1      -3.815   2.405  -5.996  0.00  0.00    -0.004 A 
ENDROOT
TORSDOF 0
ENDMDL
