MODEL 1
REMARK minimizedAffinity 1.16661251
REMARK minimizedRMSD -1
REMARK  0 active torsions:
REMARK  status: ('A' for Active; 'I' for Inactive)
ROOT
ATOM      1  C   UNL d   1      -2.021  -0.037   0.462  0.00  0.00     0.172 C 
ATOM      2  N   UNL d   1      -2.315  -1.396   0.072  0.00  0.00    -0.070 N 
ATOM      3  C1  UNL d   1      -1.407  -2.419  -0.006  0.00  0.00    -0.004 A 
ATOM      4  C2  UNL d   1      -2.081  -3.550  -0.413  0.00  0.00    -0.047 A 
ATOM      5  C3  UNL d   1      -3.440  -3.195  -0.586  0.00  0.00    -0.047 A 
ATOM      6  C4  UNL d   1      -3.557  -1.856  -0.279  0.00  0.00    -0.004 A 
ENDROOT
TORSDOF 0
ENDMDL
