MODEL 1
REMARK minimizedAffinity 7.38751316
REMARK minimizedRMSD -1
REMARK  0 active torsions:
REMARK  status: ('A' for Active; 'I' for Inactive)
ROOT
ATOM      1  C   UNL d   1       5.872  -3.791  -5.960  0.00  0.00     0.172 C 
ATOM      2  N   UNL d   1       5.921  -4.424  -4.662  0.00  0.00    -0.070 N 
ATOM      3  C1  UNL d   1       5.940  -3.774  -3.457  0.00  0.00    -0.004 A 
ATOM      4  C2  UNL d   1       5.987  -4.728  -2.464  0.00  0.00    -0.047 A 
ATOM      5  C3  UNL d   1       5.997  -5.995  -3.094  0.00  0.00    -0.047 A 
ATOM      6  C4  UNL d   1       5.956  -5.777  -4.455  0.00  0.00    -0.004 A 
ENDROOT
TORSDOF 0
ENDMDL
