MODEL 1
REMARK minimizedAffinity 2.08334494
REMARK minimizedRMSD -1
REMARK  0 active torsions:
REMARK  status: ('A' for Active; 'I' for Inactive)
ROOT
ATOM      1  C   UNL d   1       2.320  -4.341   3.008  0.00  0.00     0.172 C 
ATOM      2  N   UNL d   1       1.860  -2.988   2.797  0.00  0.00    -0.070 N 
ATOM      3  C1  UNL d   1       1.834  -2.332   1.596  0.00  0.00    -0.004 A 
ATOM      4  C2  UNL d   1       1.329  -1.069   1.815  0.00  0.00    -0.047 A 
ATOM      5  C3  UNL d   1       1.042  -0.962   3.197  0.00  0.00    -0.047 A 
ATOM      6  C4  UNL d   1       1.380  -2.165   3.781  0.00  0.00    -0.004 A 
ENDROOT
TORSDOF 0
ENDMDL
