MODEL 1
REMARK minimizedAffinity 9.58242226
REMARK minimizedRMSD -1
REMARK  0 active torsions:
REMARK  status: ('A' for Active; 'I' for Inactive)
ROOT
ATOM      1  C   UNL d   1      -5.550   3.854  -5.837  0.00  0.00     0.172 C 
ATOM      2  N   UNL d   1      -5.730   4.470  -4.544  0.00  0.00    -0.070 N 
ATOM      3  C1  UNL d   1      -5.817   5.816  -4.305  0.00  0.00    -0.004 A 
ATOM      4  C2  UNL d   1      -5.986   5.995  -2.949  0.00  0.00    -0.047 A 
ATOM      5  C3  UNL d   1      -6.000   4.712  -2.352  0.00  0.00    -0.047 A 
ATOM      6  C4  UNL d   1      -5.839   3.787  -3.362  0.00  0.00    -0.004 A 
ENDROOT
TORSDOF 0
ENDMDL
