MODEL 1
REMARK minimizedAffinity 6.37340307
REMARK minimizedRMSD -1
REMARK  0 active torsions:
REMARK  status: ('A' for Active; 'I' for Inactive)
ROOT
ATOM      1  C   UNL d   1      -0.202   3.027  -0.592  0.00  0.00     0.172 C 
ATOM      2  N   UNL d   1      -1.281   2.154  -0.194  0.00  0.00    -0.070 N 
ATOM      3  C1  UNL d   1      -2.588   2.525  -0.025  0.00  0.00    -0.004 A 
ATOM      4  C2  UNL d   1      -3.299   1.407   0.355  0.00  0.00    -0.047 A 
ATOM      5  C3  UNL d   1      -2.387   0.327   0.419  0.00  0.00    -0.047 A 
ATOM      6  C4  UNL d   1      -1.145   0.817   0.074  0.00  0.00    -0.004 A 
ENDROOT
TORSDOF 0
ENDMDL
