MODEL 1
REMARK minimizedAffinity 3.16810703
REMARK minimizedRMSD -1
REMARK  0 active torsions:
REMARK  status: ('A' for Active; 'I' for Inactive)
ROOT
ATOM      1  C   UNL d   1      -2.650  -1.361  -0.098  0.00  0.00     0.172 C 
ATOM      2  N   UNL d   1      -2.281  -2.729  -0.374  0.00  0.00    -0.070 N 
ATOM      3  C1  UNL d   1      -2.969  -3.840   0.037  0.00  0.00    -0.004 A 
ATOM      4  C2  UNL d   1      -2.297  -4.949  -0.428  0.00  0.00    -0.047 A 
ATOM      5  C3  UNL d   1      -1.165  -4.489  -1.143  0.00  0.00    -0.047 A 
ATOM      6  C4  UNL d   1      -1.180  -3.112  -1.094  0.00  0.00    -0.004 A 
ENDROOT
TORSDOF 0
ENDMDL
