MODEL 1
REMARK minimizedAffinity -0.0807800815
REMARK minimizedRMSD -1
REMARK  0 active torsions:
REMARK  status: ('A' for Active; 'I' for Inactive)
ROOT
ATOM      1  C   UNL d   1      -1.944  -0.351   0.627  0.00  0.00     0.172 C 
ATOM      2  N   UNL d   1      -2.026  -1.756   0.303  0.00  0.00    -0.070 N 
ATOM      3  C1  UNL d   1      -3.181  -2.479   0.173  0.00  0.00    -0.004 A 
ATOM      4  C2  UNL d   1      -2.834  -3.776  -0.140  0.00  0.00    -0.047 A 
ATOM      5  C3  UNL d   1      -1.421  -3.834  -0.198  0.00  0.00    -0.047 A 
ATOM      6  C4  UNL d   1      -0.946  -2.570   0.080  0.00  0.00    -0.004 A 
ENDROOT
TORSDOF 0
ENDMDL
