MODEL 1
REMARK minimizedAffinity -1.44444013
REMARK minimizedRMSD -1
REMARK  0 active torsions:
REMARK  status: ('A' for Active; 'I' for Inactive)
ROOT
ATOM      1  C   UNL d   1      -2.137  -2.647  -0.195  0.00  0.00     0.172 C 
ATOM      2  N   UNL d   1      -1.053  -2.159   0.625  0.00  0.00    -0.070 N 
ATOM      3  C1  UNL d   1      -0.084  -2.931   1.208  0.00  0.00    -0.004 A 
ATOM      4  C2  UNL d   1       0.762  -2.094   1.903  0.00  0.00    -0.047 A 
ATOM      5  C3  UNL d   1       0.284  -0.773   1.732  0.00  0.00    -0.047 A 
ATOM      6  C4  UNL d   1      -0.840  -0.843   0.937  0.00  0.00    -0.004 A 
ENDROOT
TORSDOF 0
ENDMDL
