MODEL 1
REMARK minimizedAffinity 1.0601567
REMARK minimizedRMSD -1
REMARK  0 active torsions:
REMARK  status: ('A' for Active; 'I' for Inactive)
ROOT
ATOM      1  C   UNL d   1       2.377   5.883  -0.756  0.00  0.00     0.172 C 
ATOM      2  N   UNL d   1       3.812   5.930  -0.600  0.00  0.00    -0.070 N 
ATOM      3  C1  UNL d   1       4.484   5.955   0.592  0.00  0.00    -0.004 A 
ATOM      4  C2  UNL d   1       5.834   5.997   0.315  0.00  0.00    -0.047 A 
ATOM      5  C3  UNL d   1       5.977   5.999  -1.093  0.00  0.00    -0.047 A 
ATOM      6  C4  UNL d   1       4.709   5.957  -1.635  0.00  0.00    -0.004 A 
ENDROOT
TORSDOF 0
ENDMDL
