MODEL 1
REMARK minimizedAffinity 5.36894941
REMARK minimizedRMSD -1
REMARK  0 active torsions:
REMARK  status: ('A' for Active; 'I' for Inactive)
ROOT
ATOM      1  C   UNL d   1      -1.839  -0.130   0.362  0.00  0.00     0.172 C 
ATOM      2  N   UNL d   1      -2.102  -1.512   0.040  0.00  0.00    -0.070 N 
ATOM      3  C1  UNL d   1      -3.326  -2.040  -0.275  0.00  0.00    -0.004 A 
ATOM      4  C2  UNL d   1      -3.156  -3.386  -0.517  0.00  0.00    -0.047 A 
ATOM      5  C3  UNL d   1      -1.783  -3.678  -0.340  0.00  0.00    -0.047 A 
ATOM      6  C4  UNL d   1      -1.154  -2.500   0.004  0.00  0.00    -0.004 A 
ENDROOT
TORSDOF 0
ENDMDL
