MODEL 1
REMARK minimizedAffinity -2.38515401
REMARK minimizedRMSD -1
REMARK  3 active torsions:
REMARK  status: ('A' for Active; 'I' for Inactive)
REMARK    1  A    between atoms: C3'_2  and  C2'_3 
REMARK    2  A    between atoms: C2'_3  and  C1'_4 
REMARK    3  A    between atoms: C1'_4  and  C1_5 
ROOT
ATOM      1  C1  N4B d   1       0.376  -0.025   0.113  0.00  0.00    -0.075 A 
ATOM      2  C2  N4B d   1      -0.271   0.821  -0.814  0.00  0.00     0.002 A 
ATOM      3  C3  N4B d   1      -1.188   1.745  -0.376  0.00  0.00     0.002 A 
ATOM      4  C4  N4B d   1      -1.486   1.828   0.976  0.00  0.00    -0.004 A 
ATOM      5  C5  N4B d   1      -0.837   1.025   1.868  0.00  0.00     0.002 A 
ATOM      6  C6  N4B d   1       0.089   0.094   1.442  0.00  0.00     0.002 A 
ENDROOT
BRANCH   1   7
ATOM      7  C1' N4B d   1       1.321  -1.110  -0.327  0.00  0.00     0.057 C 
BRANCH   7   8
ATOM      8  C2' N4B d   1       0.707  -1.864  -1.502  0.00  0.00     0.009 C 
BRANCH   8   9
ATOM      9  C3' N4B d   1       1.115  -3.327  -1.515  0.00  0.00     0.004 C 
ATOM     10  C4' N4B d   1       0.318  -4.144  -2.487  0.00  0.00     0.003 C 
ENDBRANCH   8   9
ENDBRANCH   7   8
ENDBRANCH   1   7
TORSDOF 3
ENDMDL
