MODEL 1
REMARK minimizedAffinity -2.66865873
REMARK minimizedRMSD -1
REMARK  3 active torsions:
REMARK  status: ('A' for Active; 'I' for Inactive)
REMARK    1  A    between atoms: C3'_2  and  C2'_3 
REMARK    2  A    between atoms: C2'_3  and  C1'_4 
REMARK    3  A    between atoms: C1'_4  and  C1_5 
ROOT
ATOM      1  C1  N4B d   1      -1.115   1.301   0.082  0.00  0.00    -0.075 A 
ATOM      2  C2  N4B d   1      -0.271   2.019  -0.793  0.00  0.00     0.002 A 
ATOM      3  C3  N4B d   1       0.921   1.472  -1.200  0.00  0.00     0.002 A 
ATOM      4  C4  N4B d   1       1.298   0.222  -0.731  0.00  0.00    -0.004 A 
ATOM      5  C5  N4B d   1       0.465  -0.476   0.093  0.00  0.00     0.002 A 
ATOM      6  C6  N4B d   1      -0.739   0.060   0.507  0.00  0.00     0.002 A 
ENDROOT
BRANCH   1   7
ATOM      7  C1' N4B d   1      -2.388   1.893   0.622  0.00  0.00     0.057 C 
BRANCH   7   8
ATOM      8  C2' N4B d   1      -2.059   2.781   1.818  0.00  0.00     0.009 C 
BRANCH   8   9
ATOM      9  C3' N4B d   1      -0.918   2.218   2.647  0.00  0.00     0.004 C 
ATOM     10  C4' N4B d   1      -0.116   3.284   3.332  0.00  0.00     0.003 C 
ENDBRANCH   8   9
ENDBRANCH   7   8
ENDBRANCH   1   7
TORSDOF 3
ENDMDL
