MODEL 1
REMARK minimizedAffinity -6.21570158
REMARK minimizedRMSD -1
REMARK  3 active torsions:
REMARK  status: ('A' for Active; 'I' for Inactive)
REMARK    1  A    between atoms: C3'_2  and  C2'_3 
REMARK    2  A    between atoms: C2'_3  and  C1'_4 
REMARK    3  A    between atoms: C1'_4  and  C1_5 
ROOT
ATOM      1  C1  N4B d   1       0.238  -0.009   0.281  0.00  0.00    -0.075 A 
ATOM      2  C2  N4B d   1      -0.561   0.825  -0.532  0.00  0.00     0.002 A 
ATOM      3  C3  N4B d   1      -1.544   1.598   0.035  0.00  0.00     0.002 A 
ATOM      4  C4  N4B d   1      -1.760   1.539   1.404  0.00  0.00    -0.004 A 
ATOM      5  C5  N4B d   1      -0.967   0.750   2.185  0.00  0.00     0.002 A 
ATOM      6  C6  N4B d   1       0.028  -0.029   1.630  0.00  0.00     0.002 A 
ENDROOT
BRANCH   1   7
ATOM      7  C1' N4B d   1       1.268  -0.937  -0.303  0.00  0.00     0.057 C 
BRANCH   7   8
ATOM      8  C2' N4B d   1       0.699  -1.590  -1.559  0.00  0.00     0.009 C 
BRANCH   8   9
ATOM      9  C3' N4B d   1       1.251  -2.989  -1.771  0.00  0.00     0.004 C 
ATOM     10  C4' N4B d   1       0.174  -4.021  -1.923  0.00  0.00     0.003 C 
ENDBRANCH   8   9
ENDBRANCH   7   8
ENDBRANCH   1   7
TORSDOF 3
ENDMDL
