MODEL 1
REMARK minimizedAffinity -5.35376263
REMARK minimizedRMSD -1
REMARK  3 active torsions:
REMARK  status: ('A' for Active; 'I' for Inactive)
REMARK    1  A    between atoms: C3'_2  and  C2'_3 
REMARK    2  A    between atoms: C2'_3  and  C1'_4 
REMARK    3  A    between atoms: C1'_4  and  C1_5 
ROOT
ATOM      1  C1  N4B d   1       0.079  -0.078   0.079  0.00  0.00    -0.075 A 
ATOM      2  C2  N4B d   1       0.141  -0.379   1.458  0.00  0.00     0.002 A 
ATOM      3  C3  N4B d   1      -0.753   0.196   2.327  0.00  0.00     0.002 A 
ATOM      4  C4  N4B d   1      -1.702   1.085   1.847  0.00  0.00    -0.004 A 
ATOM      5  C5  N4B d   1      -1.772   1.351   0.510  0.00  0.00     0.002 A 
ATOM      6  C6  N4B d   1      -0.882   0.778  -0.376  0.00  0.00     0.002 A 
ENDROOT
BRANCH   1   7
ATOM      7  C1' N4B d   1       1.089  -0.615  -0.897  0.00  0.00     0.057 C 
BRANCH   7   8
ATOM      8  C2' N4B d   1       0.782  -2.083  -1.178  0.00  0.00     0.009 C 
BRANCH   8   9
ATOM      9  C3' N4B d   1       1.511  -2.591  -2.410  0.00  0.00     0.004 C 
ATOM     10  C4' N4B d   1       1.149  -4.004  -2.758  0.00  0.00     0.003 C 
ENDBRANCH   8   9
ENDBRANCH   7   8
ENDBRANCH   1   7
TORSDOF 3
ENDMDL
