MODEL 1
REMARK minimizedAffinity -6.05354118
REMARK minimizedRMSD -1
REMARK  3 active torsions:
REMARK  status: ('A' for Active; 'I' for Inactive)
REMARK    1  A    between atoms: C3'_2  and  C2'_3 
REMARK    2  A    between atoms: C2'_3  and  C1'_4 
REMARK    3  A    between atoms: C1'_4  and  C1_5 
ROOT
ATOM      1  C1  N4B d   1       0.086   0.332   0.196  0.00  0.00    -0.075 A 
ATOM      2  C2  N4B d   1      -0.021  -0.032   1.556  0.00  0.00     0.002 A 
ATOM      3  C3  N4B d   1      -0.893   0.637   2.379  0.00  0.00     0.002 A 
ATOM      4  C4  N4B d   1      -1.652   1.681   1.871  0.00  0.00    -0.004 A 
ATOM      5  C5  N4B d   1      -1.562   2.009   0.550  0.00  0.00     0.002 A 
ATOM      6  C6  N4B d   1      -0.692   1.343  -0.290  0.00  0.00     0.002 A 
ENDROOT
BRANCH   1   7
ATOM      7  C1' N4B d   1       1.087  -0.314  -0.723  0.00  0.00     0.057 C 
BRANCH   7   8
ATOM      8  C2' N4B d   1       0.793  -1.808  -0.814  0.00  0.00     0.009 C 
BRANCH   8   9
ATOM      9  C3' N4B d   1       0.445  -2.234  -2.229  0.00  0.00     0.004 C 
ATOM     10  C4' N4B d   1       0.811  -3.660  -2.514  0.00  0.00     0.003 C 
ENDBRANCH   8   9
ENDBRANCH   7   8
ENDBRANCH   1   7
TORSDOF 3
ENDMDL
