MODEL 1
REMARK minimizedAffinity -4.06562757
REMARK minimizedRMSD -1
REMARK  3 active torsions:
REMARK  status: ('A' for Active; 'I' for Inactive)
REMARK    1  A    between atoms: C3'_2  and  C2'_3 
REMARK    2  A    between atoms: C2'_3  and  C1'_4 
REMARK    3  A    between atoms: C1'_4  and  C1_5 
ROOT
ATOM      1  C1  N4B d   1       0.831  -1.851  -1.168  0.00  0.00    -0.075 A 
ATOM      2  C2  N4B d   1       1.395  -3.073  -0.741  0.00  0.00     0.002 A 
ATOM      3  C3  N4B d   1       1.120  -4.232  -1.424  0.00  0.00     0.002 A 
ATOM      4  C4  N4B d   1       0.273  -4.197  -2.522  0.00  0.00    -0.004 A 
ATOM      5  C5  N4B d   1      -0.247  -3.009  -2.944  0.00  0.00     0.002 A 
ATOM      6  C6  N4B d   1       0.024  -1.835  -2.269  0.00  0.00     0.002 A 
ENDROOT
BRANCH   1   7
ATOM      7  C1' N4B d   1       1.034  -0.572  -0.403  0.00  0.00     0.057 C 
BRANCH   7   8
ATOM      8  C2' N4B d   1      -0.318  -0.064   0.091  0.00  0.00     0.009 C 
BRANCH   8   9
ATOM      9  C3' N4B d   1      -0.416  -0.091   1.606  0.00  0.00     0.004 C 
ATOM     10  C4' N4B d   1      -1.508   0.792   2.133  0.00  0.00     0.003 C 
ENDBRANCH   8   9
ENDBRANCH   7   8
ENDBRANCH   1   7
TORSDOF 3
ENDMDL
