MODEL 1
REMARK minimizedAffinity -6.26917648
REMARK minimizedRMSD -1
REMARK  3 active torsions:
REMARK  status: ('A' for Active; 'I' for Inactive)
REMARK    1  A    between atoms: C3'_2  and  C2'_3 
REMARK    2  A    between atoms: C2'_3  and  C1'_4 
REMARK    3  A    between atoms: C1'_4  and  C1_5 
ROOT
ATOM      1  C1  N4B d   1       0.421   0.065   0.190  0.00  0.00    -0.075 A 
ATOM      2  C2  N4B d   1       0.042   1.310  -0.357  0.00  0.00     0.002 A 
ATOM      3  C3  N4B d   1      -0.872   2.098   0.298  0.00  0.00     0.002 A 
ATOM      4  C4  N4B d   1      -1.432   1.656   1.487  0.00  0.00    -0.004 A 
ATOM      5  C5  N4B d   1      -1.041   0.463   2.022  0.00  0.00     0.002 A 
ATOM      6  C6  N4B d   1      -0.121  -0.338   1.376  0.00  0.00     0.002 A 
ENDROOT
BRANCH   1   7
ATOM      7  C1' N4B d   1       1.351  -0.870  -0.533  0.00  0.00     0.057 C 
BRANCH   7   8
ATOM      8  C2' N4B d   1       0.604  -1.522  -1.693  0.00  0.00     0.009 C 
BRANCH   8   9
ATOM      9  C3' N4B d   1       1.243  -2.835  -2.114  0.00  0.00     0.004 C 
ATOM     10  C4' N4B d   1       0.253  -3.957  -2.213  0.00  0.00     0.003 C 
ENDBRANCH   8   9
ENDBRANCH   7   8
ENDBRANCH   1   7
TORSDOF 3
ENDMDL
