MODEL 1
REMARK minimizedAffinity 12.9672003
REMARK minimizedRMSD -1
REMARK  0 active torsions:
REMARK  status: ('A' for Active; 'I' for Inactive)
ROOT
ATOM      1  C   UNL d   1       5.692  -5.200  -0.261  0.00  0.00    -0.002 A 
ATOM      2  C1  UNL d   1       5.688  -3.817  -0.375  0.00  0.00     0.010 A 
ATOM      3  C2  UNL d   1       5.235  -3.202  -1.543  0.00  0.00     0.041 A 
ATOM      4  C3  UNL d   1       4.781  -4.008  -2.606  0.00  0.00    -0.075 A 
ATOM      5  S   UNL d   1       4.180  -3.475  -4.132  0.00  0.00     0.015 SA
ATOM      6  C4  UNL d   1       3.915  -5.071  -4.668  0.00  0.00     0.022 A 
ATOM      7  C5  UNL d   1       4.270  -6.000  -3.719  0.00  0.00     0.026 A 
ATOM      8  C6  UNL d   1       4.775  -5.403  -2.515  0.00  0.00    -0.082 A 
ATOM      9  C7  UNL d   1       5.241  -5.996  -1.317  0.00  0.00     0.045 A 
ENDROOT
TORSDOF 0
ENDMDL
