MODEL 1
REMARK minimizedAffinity 10.7285023
REMARK minimizedRMSD -1
REMARK  0 active torsions:
REMARK  status: ('A' for Active; 'I' for Inactive)
ROOT
ATOM      1  C   UNL d   1      -1.102   3.204  -0.576  0.00  0.00    -0.002 A 
ATOM      2  C1  UNL d   1      -2.304   3.565  -1.167  0.00  0.00     0.010 A 
ATOM      3  C2  UNL d   1      -2.325   4.429  -2.264  0.00  0.00     0.041 A 
ATOM      4  C3  UNL d   1      -1.105   4.927  -2.763  0.00  0.00    -0.075 A 
ATOM      5  S   UNL d   1      -0.887   5.998  -4.096  0.00  0.00     0.015 SA
ATOM      6  C4  UNL d   1       0.807   6.000  -3.914  0.00  0.00     0.022 A 
ATOM      7  C5  UNL d   1       1.214   5.209  -2.866  0.00  0.00     0.026 A 
ATOM      8  C6  UNL d   1       0.118   4.577  -2.185  0.00  0.00    -0.082 A 
ATOM      9  C7  UNL d   1       0.106   3.700  -1.074  0.00  0.00     0.045 A 
ENDROOT
TORSDOF 0
ENDMDL
