MODEL 1
REMARK minimizedAffinity 2.97357678
REMARK minimizedRMSD -1
REMARK  0 active torsions:
REMARK  status: ('A' for Active; 'I' for Inactive)
ROOT
ATOM      1  C   UNL d   1      -0.148  -1.684  -1.190  0.00  0.00    -0.002 A 
ATOM      2  C1  UNL d   1       1.123  -1.184  -1.436  0.00  0.00     0.010 A 
ATOM      3  C2  UNL d   1       1.368   0.190  -1.383  0.00  0.00     0.041 A 
ATOM      4  C3  UNL d   1       0.305   1.061  -1.075  0.00  0.00    -0.075 A 
ATOM      5  S   UNL d   1       0.371   2.779  -0.954  0.00  0.00     0.015 SA
ATOM      6  C4  UNL d   1      -1.287   2.890  -0.572  0.00  0.00     0.022 A 
ATOM      7  C5  UNL d   1      -1.891   1.656  -0.534  0.00  0.00     0.026 A 
ATOM      8  C6  UNL d   1      -0.983   0.581  -0.822  0.00  0.00    -0.082 A 
ATOM      9  C7  UNL d   1      -1.200  -0.816  -0.884  0.00  0.00     0.045 A 
ENDROOT
TORSDOF 0
ENDMDL
