MODEL 1
REMARK minimizedAffinity 9.50740337
REMARK minimizedRMSD -1
REMARK  0 active torsions:
REMARK  status: ('A' for Active; 'I' for Inactive)
ROOT
ATOM      1  C   UNL d   1       1.102   1.168   2.762  0.00  0.00    -0.002 A 
ATOM      2  C1  UNL d   1      -0.002   1.688   3.423  0.00  0.00     0.010 A 
ATOM      3  C2  UNL d   1      -0.677   2.798   2.914  0.00  0.00     0.041 A 
ATOM      4  C3  UNL d   1      -0.221   3.383   1.715  0.00  0.00    -0.075 A 
ATOM      5  S   UNL d   1      -0.891   4.748   0.904  0.00  0.00     0.015 SA
ATOM      6  C4  UNL d   1       0.272   4.673  -0.340  0.00  0.00     0.022 A 
ATOM      7  C5  UNL d   1       1.158   3.638  -0.156  0.00  0.00     0.026 A 
ATOM      8  C6  UNL d   1       0.888   2.876   1.031  0.00  0.00    -0.082 A 
ATOM      9  C7  UNL d   1       1.551   1.750   1.574  0.00  0.00     0.045 A 
ENDROOT
TORSDOF 0
ENDMDL
