MODEL 1
REMARK minimizedAffinity 4.68044806
REMARK minimizedRMSD -1
REMARK  0 active torsions:
REMARK  status: ('A' for Active; 'I' for Inactive)
ROOT
ATOM      1  C   UNL d   1      -0.008   2.939   0.333  0.00  0.00    -0.002 A 
ATOM      2  C1  UNL d   1       1.180   3.437  -0.184  0.00  0.00     0.010 A 
ATOM      3  C2  UNL d   1       1.166   4.377  -1.216  0.00  0.00     0.041 A 
ATOM      4  C3  UNL d   1      -0.073   4.814  -1.723  0.00  0.00    -0.075 A 
ATOM      5  S   UNL d   1      -0.334   5.960  -2.985  0.00  0.00     0.015 SA
ATOM      6  C4  UNL d   1      -2.028   5.816  -2.867  0.00  0.00     0.022 A 
ATOM      7  C5  UNL d   1      -2.403   4.920  -1.894  0.00  0.00     0.026 A 
ATOM      8  C6  UNL d   1      -1.283   4.328  -1.218  0.00  0.00    -0.082 A 
ATOM      9  C7  UNL d   1      -1.235   3.375  -0.173  0.00  0.00     0.045 A 
ENDROOT
TORSDOF 0
ENDMDL
