MODEL 1
REMARK minimizedAffinity 7.99637651
REMARK minimizedRMSD -1
REMARK  0 active torsions:
REMARK  status: ('A' for Active; 'I' for Inactive)
ROOT
ATOM      1  C   UNL d   1      -0.534   6.000  -2.279  0.00  0.00    -0.002 A 
ATOM      2  C1  UNL d   1       0.758   5.996  -1.773  0.00  0.00     0.010 A 
ATOM      3  C2  UNL d   1       1.201   4.948  -0.963  0.00  0.00     0.041 A 
ATOM      4  C3  UNL d   1       0.315   3.893  -0.669  0.00  0.00    -0.075 A 
ATOM      5  S   UNL d   1       0.639   2.504   0.300  0.00  0.00     0.015 SA
ATOM      6  C4  UNL d   1      -0.931   1.882   0.065  0.00  0.00     0.022 A 
ATOM      7  C5  UNL d   1      -1.696   2.702  -0.731  0.00  0.00     0.026 A 
ATOM      8  C6  UNL d   1      -0.990   3.874  -1.167  0.00  0.00    -0.082 A 
ATOM      9  C7  UNL d   1      -1.410   4.951  -1.985  0.00  0.00     0.045 A 
ENDROOT
TORSDOF 0
ENDMDL
