MODEL 1
REMARK minimizedAffinity 3.21115732
REMARK minimizedRMSD -1
REMARK  0 active torsions:
REMARK  status: ('A' for Active; 'I' for Inactive)
ROOT
ATOM      1  C   UNL d   1      -0.649   5.558  -0.760  0.00  0.00    -0.002 A 
ATOM      2  C1  UNL d   1      -0.924   6.000   0.526  0.00  0.00     0.010 A 
ATOM      3  C2  UNL d   1      -0.755   5.150   1.620  0.00  0.00     0.041 A 
ATOM      4  C3  UNL d   1      -0.300   3.835   1.398  0.00  0.00    -0.075 A 
ATOM      5  S   UNL d   1      -0.019   2.618   2.587  0.00  0.00     0.015 SA
ATOM      6  C4  UNL d   1       0.474   1.482   1.415  0.00  0.00     0.022 A 
ATOM      7  C5  UNL d   1       0.430   2.002   0.143  0.00  0.00     0.026 A 
ATOM      8  C6  UNL d   1      -0.015   3.367   0.112  0.00  0.00    -0.082 A 
ATOM      9  C7  UNL d   1      -0.197   4.253  -0.977  0.00  0.00     0.045 A 
ENDROOT
TORSDOF 0
ENDMDL
