MODEL 1
REMARK minimizedAffinity 4.68863726
REMARK minimizedRMSD -1
REMARK  0 active torsions:
REMARK  status: ('A' for Active; 'I' for Inactive)
ROOT
ATOM      1  C   UNL d   1       1.037   0.260  -2.496  0.00  0.00     0.023 A 
ATOM      2  C1  UNL d   1       1.723   0.808  -1.413  0.00  0.00     0.003 A 
ATOM      3  C2  UNL d   1       2.395   2.025  -1.553  0.00  0.00     0.048 A 
ATOM      4  C3  UNL d   1       2.374   2.689  -2.779  0.00  0.00     0.023 A 
ATOM      5  C4  UNL d   1       1.687   2.145  -3.866  0.00  0.00     0.048 A 
ATOM      6  C5  UNL d   1       1.019   0.928  -3.721  0.00  0.00     0.003 A 
ATOM      7  I   UNL d   1       3.372   4.500  -2.989  0.00  0.00    -0.146 I 
ENDROOT
TORSDOF 0
ENDMDL
