MODEL 1
REMARK minimizedAffinity 4.74918318
REMARK minimizedRMSD -1
REMARK  0 active torsions:
REMARK  status: ('A' for Active; 'I' for Inactive)
ROOT
ATOM      1  C   UNL d   1       0.388   0.512  -2.995  0.00  0.00     0.023 A 
ATOM      2  C1  UNL d   1       1.376   0.010  -2.148  0.00  0.00     0.003 A 
ATOM      3  C2  UNL d   1       2.724   0.160  -2.480  0.00  0.00     0.048 A 
ATOM      4  C3  UNL d   1       3.077   0.815  -3.660  0.00  0.00     0.023 A 
ATOM      5  C4  UNL d   1       2.091   1.319  -4.510  0.00  0.00     0.048 A 
ATOM      6  C5  UNL d   1       0.745   1.166  -4.174  0.00  0.00     0.003 A 
ATOM      7  I   UNL d   1       5.083   1.039  -4.156  0.00  0.00    -0.146 I 
ENDROOT
TORSDOF 0
ENDMDL
