MODEL 1
REMARK minimizedAffinity 9.37973976
REMARK minimizedRMSD -1
REMARK  0 active torsions:
REMARK  status: ('A' for Active; 'I' for Inactive)
ROOT
ATOM      1  C   UNL d   1      -3.356  -2.686  -0.420  0.00  0.00     0.023 A 
ATOM      2  C1  UNL d   1      -3.182  -2.669   0.964  0.00  0.00     0.003 A 
ATOM      3  C2  UNL d   1      -2.184  -3.448   1.553  0.00  0.00     0.048 A 
ATOM      4  C3  UNL d   1      -1.363  -4.241   0.753  0.00  0.00     0.023 A 
ATOM      5  C4  UNL d   1      -1.533  -4.261  -0.633  0.00  0.00     0.048 A 
ATOM      6  C5  UNL d   1      -2.532  -3.481  -1.217  0.00  0.00     0.003 A 
ATOM      7  I   UNL d   1       0.123  -5.402   1.627  0.00  0.00    -0.146 I 
ENDROOT
TORSDOF 0
ENDMDL
