MODEL 1
REMARK minimizedAffinity 6.54182816
REMARK minimizedRMSD -1
REMARK  0 active torsions:
REMARK  status: ('A' for Active; 'I' for Inactive)
ROOT
ATOM      1  C   UNL d   1       5.770  -5.993   5.029  0.00  0.00     0.023 A 
ATOM      2  C1  UNL d   1       4.492  -5.992   5.589  0.00  0.00     0.003 A 
ATOM      3  C2  UNL d   1       3.366  -5.994   4.763  0.00  0.00     0.048 A 
ATOM      4  C3  UNL d   1       3.525  -5.997   3.378  0.00  0.00     0.023 A 
ATOM      5  C4  UNL d   1       4.801  -5.998   2.813  0.00  0.00     0.048 A 
ATOM      6  C5  UNL d   1       5.924  -5.996   3.642  0.00  0.00     0.003 A 
ATOM      7  I   UNL d   1       1.851  -5.999   2.146  0.00  0.00    -0.146 I 
ENDROOT
TORSDOF 0
ENDMDL
