MODEL 1
REMARK minimizedAffinity 10.8844213
REMARK minimizedRMSD -1
REMARK  0 active torsions:
REMARK  status: ('A' for Active; 'I' for Inactive)
ROOT
ATOM      1  C   UNL d   1      -3.164   5.997   5.625  0.00  0.00     0.023 A 
ATOM      2  C1  UNL d   1      -2.029   5.588   4.925  0.00  0.00     0.003 A 
ATOM      3  C2  UNL d   1      -2.010   4.347   4.287  0.00  0.00     0.048 A 
ATOM      4  C3  UNL d   1      -3.130   3.519   4.350  0.00  0.00     0.023 A 
ATOM      5  C4  UNL d   1      -4.269   3.924   5.048  0.00  0.00     0.048 A 
ATOM      6  C5  UNL d   1      -4.283   5.166   5.686  0.00  0.00     0.003 A 
ATOM      7  I   UNL d   1      -3.104   1.671   3.400  0.00  0.00    -0.146 I 
ENDROOT
TORSDOF 0
ENDMDL
