MODEL 1
REMARK minimizedAffinity 10.4033413
REMARK minimizedRMSD -1
REMARK  0 active torsions:
REMARK  status: ('A' for Active; 'I' for Inactive)
ROOT
ATOM      1  C   UNL d   1      -3.104   5.984   5.988  0.00  0.00     0.023 A 
ATOM      2  C1  UNL d   1      -1.950   5.604   5.303  0.00  0.00     0.003 A 
ATOM      3  C2  UNL d   1      -1.996   4.555   4.383  0.00  0.00     0.048 A 
ATOM      4  C3  UNL d   1      -3.200   3.891   4.151  0.00  0.00     0.023 A 
ATOM      5  C4  UNL d   1      -4.358   4.268   4.833  0.00  0.00     0.048 A 
ATOM      6  C5  UNL d   1      -4.306   5.317   5.753  0.00  0.00     0.003 A 
ATOM      7  I   UNL d   1      -3.271   2.330   2.781  0.00  0.00    -0.146 I 
ENDROOT
TORSDOF 0
ENDMDL
