MODEL 1
REMARK minimizedAffinity 11.0947599
REMARK minimizedRMSD -1
REMARK  0 active torsions:
REMARK  status: ('A' for Active; 'I' for Inactive)
ROOT
ATOM      1  C   UNL d   1       1.804   1.900  -3.134  0.00  0.00     0.023 A 
ATOM      2  C1  UNL d   1       2.198   1.307  -1.934  0.00  0.00     0.003 A 
ATOM      3  C2  UNL d   1       1.859  -0.020  -1.665  0.00  0.00     0.048 A 
ATOM      4  C3  UNL d   1       1.126  -0.750  -2.600  0.00  0.00     0.023 A 
ATOM      5  C4  UNL d   1       0.731  -0.162  -3.803  0.00  0.00     0.048 A 
ATOM      6  C5  UNL d   1       1.072   1.166  -4.067  0.00  0.00     0.003 A 
ATOM      7  I   UNL d   1       0.620  -2.726  -2.201  0.00  0.00    -0.146 I 
ENDROOT
TORSDOF 0
ENDMDL
