MODEL 1
REMARK minimizedAffinity 5.95420647
REMARK minimizedRMSD -1
REMARK  0 active torsions:
REMARK  status: ('A' for Active; 'I' for Inactive)
ROOT
ATOM      1  C   UNL d   1       1.874   0.369  -1.253  0.00  0.00     0.023 A 
ATOM      2  C1  UNL d   1       3.039   0.222  -2.005  0.00  0.00     0.003 A 
ATOM      3  C2  UNL d   1       3.036   0.528  -3.367  0.00  0.00     0.048 A 
ATOM      4  C3  UNL d   1       1.863   0.981  -3.971  0.00  0.00     0.023 A 
ATOM      5  C4  UNL d   1       0.695   1.130  -3.223  0.00  0.00     0.048 A 
ATOM      6  C5  UNL d   1       0.703   0.822  -1.861  0.00  0.00     0.003 A 
ATOM      7  I   UNL d   1       1.856   1.437  -5.999  0.00  0.00    -0.146 I 
ENDROOT
TORSDOF 0
ENDMDL
