MODEL 1
REMARK minimizedAffinity 12.7543898
REMARK minimizedRMSD -1
REMARK  0 active torsions:
REMARK  status: ('A' for Active; 'I' for Inactive)
ROOT
ATOM      1  C   UNL d   1       0.277   0.643  -4.200  0.00  0.00     0.023 A 
ATOM      2  C1  UNL d   1       1.063   0.564  -3.050  0.00  0.00     0.003 A 
ATOM      3  C2  UNL d   1       1.845   1.654  -2.662  0.00  0.00     0.048 A 
ATOM      4  C3  UNL d   1       1.836   2.819  -3.428  0.00  0.00     0.023 A 
ATOM      5  C4  UNL d   1       1.051   2.903  -4.578  0.00  0.00     0.048 A 
ATOM      6  C5  UNL d   1       0.271   1.811  -4.963  0.00  0.00     0.003 A 
ATOM      7  I   UNL d   1       3.000   4.442  -2.852  0.00  0.00    -0.146 I 
ENDROOT
TORSDOF 0
ENDMDL
