MODEL 1
REMARK minimizedAffinity 3.07900977
REMARK minimizedRMSD -1
REMARK  0 active torsions:
REMARK  status: ('A' for Active; 'I' for Inactive)
ROOT
ATOM      1  C   UNL d   1       1.621   1.128  -4.494  0.00  0.00     0.023 A 
ATOM      2  C1  UNL d   1       2.321   2.239  -4.023  0.00  0.00     0.003 A 
ATOM      3  C2  UNL d   1       2.432   2.466  -2.650  0.00  0.00     0.048 A 
ATOM      4  C3  UNL d   1       1.840   1.577  -1.752  0.00  0.00     0.023 A 
ATOM      5  C4  UNL d   1       1.139   0.464  -2.218  0.00  0.00     0.048 A 
ATOM      6  C5  UNL d   1       1.031   0.241  -3.592  0.00  0.00     0.003 A 
ATOM      7  I   UNL d   1       2.004   1.913   0.292  0.00  0.00    -0.146 I 
ENDROOT
TORSDOF 0
ENDMDL
