MODEL 1
REMARK minimizedAffinity 12.7783203
REMARK minimizedRMSD -1
REMARK  0 active torsions:
REMARK  status: ('A' for Active; 'I' for Inactive)
ROOT
ATOM      1  C   UNL d   1       1.132   1.202  -2.696  0.00  0.00     0.023 A 
ATOM      2  C1  UNL d   1       1.370   0.218  -3.655  0.00  0.00     0.003 A 
ATOM      3  C2  UNL d   1       1.680  -1.085  -3.259  0.00  0.00     0.048 A 
ATOM      4  C3  UNL d   1       1.748  -1.396  -1.901  0.00  0.00     0.023 A 
ATOM      5  C4  UNL d   1       1.509  -0.415  -0.938  0.00  0.00     0.048 A 
ATOM      6  C5  UNL d   1       1.201   0.886  -1.339  0.00  0.00     0.003 A 
ATOM      7  I   UNL d   1       2.208  -3.335  -1.309  0.00  0.00    -0.146 I 
ENDROOT
TORSDOF 0
ENDMDL
