MODEL 1
REMARK minimizedAffinity 13.7530422
REMARK minimizedRMSD -1
REMARK  0 active torsions:
REMARK  status: ('A' for Active; 'I' for Inactive)
ROOT
ATOM      1  C   UNL d   1       1.105   0.304  -2.323  0.00  0.00     0.023 A 
ATOM      2  C1  UNL d   1       1.956  -0.369  -1.446  0.00  0.00     0.003 A 
ATOM      3  C2  UNL d   1       3.340  -0.259  -1.592  0.00  0.00     0.048 A 
ATOM      4  C3  UNL d   1       3.867   0.527  -2.618  0.00  0.00     0.023 A 
ATOM      5  C4  UNL d   1       3.019   1.202  -3.497  0.00  0.00     0.048 A 
ATOM      6  C5  UNL d   1       1.635   1.088  -3.347  0.00  0.00     0.003 A 
ATOM      7  I   UNL d   1       5.927   0.692  -2.838  0.00  0.00    -0.146 I 
ENDROOT
TORSDOF 0
ENDMDL
