MODEL 1
REMARK minimizedAffinity 8.44172478
REMARK minimizedRMSD -1
REMARK  0 active torsions:
REMARK  status: ('A' for Active; 'I' for Inactive)
ROOT
ATOM      1  C   UNL d   1       0.875   1.691  -2.882  0.00  0.00     0.023 A 
ATOM      2  C1  UNL d   1       1.374   1.361  -1.622  0.00  0.00     0.003 A 
ATOM      3  C2  UNL d   1       0.738   0.385  -0.852  0.00  0.00     0.048 A 
ATOM      4  C3  UNL d   1      -0.395  -0.258  -1.348  0.00  0.00     0.023 A 
ATOM      5  C4  UNL d   1      -0.898   0.068  -2.609  0.00  0.00     0.048 A 
ATOM      6  C5  UNL d   1      -0.260   1.045  -3.375  0.00  0.00     0.003 A 
ATOM      7  I   UNL d   1      -1.342  -1.711  -0.203  0.00  0.00    -0.146 I 
ENDROOT
TORSDOF 0
ENDMDL
