MODEL 1
REMARK minimizedAffinity 10.5591946
REMARK minimizedRMSD -1
REMARK  0 active torsions:
REMARK  status: ('A' for Active; 'I' for Inactive)
ROOT
ATOM      1  C   UNL d   1      -3.777   5.925   5.256  0.00  0.00     0.023 A 
ATOM      2  C1  UNL d   1      -3.031   5.172   4.349  0.00  0.00     0.003 A 
ATOM      3  C2  UNL d   1      -3.666   4.237   3.527  0.00  0.00     0.048 A 
ATOM      4  C3  UNL d   1      -5.046   4.063   3.617  0.00  0.00     0.023 A 
ATOM      5  C4  UNL d   1      -5.796   4.815   4.522  0.00  0.00     0.048 A 
ATOM      6  C5  UNL d   1      -5.157   5.747   5.342  0.00  0.00     0.003 A 
ATOM      7  I   UNL d   1      -5.993   2.673   2.395  0.00  0.00    -0.146 I 
ENDROOT
TORSDOF 0
ENDMDL
