MODEL 1
REMARK minimizedAffinity 11.769063
REMARK minimizedRMSD -1
REMARK  0 active torsions:
REMARK  status: ('A' for Active; 'I' for Inactive)
ROOT
ATOM      1  C   UNL d   1       0.873   0.309  -1.438  0.00  0.00     0.023 A 
ATOM      2  C1  UNL d   1       1.528   1.437  -1.930  0.00  0.00     0.003 A 
ATOM      3  C2  UNL d   1       1.298   1.864  -3.240  0.00  0.00     0.048 A 
ATOM      4  C3  UNL d   1       0.410   1.158  -4.051  0.00  0.00     0.023 A 
ATOM      5  C4  UNL d   1      -0.248   0.028  -3.562  0.00  0.00     0.048 A 
ATOM      6  C5  UNL d   1      -0.014  -0.395  -2.252  0.00  0.00     0.003 A 
ATOM      7  I   UNL d   1       0.065   1.791  -6.000  0.00  0.00    -0.146 I 
ENDROOT
TORSDOF 0
ENDMDL
