MODEL 1
REMARK minimizedAffinity 0.710547447
REMARK minimizedRMSD -1
REMARK  0 active torsions:
REMARK  status: ('A' for Active; 'I' for Inactive)
ROOT
ATOM      1  C2' OXE d   1       2.831  -1.406   0.051  0.00  0.00     0.078 C 
ATOM      2  C1' OXE d   1       2.973   1.394   0.201  0.00  0.00     0.078 C 
ATOM      3  C1  OXE d   1       2.151   0.674   1.241  0.00  0.00    -0.078 A 
ATOM      4  C2  OXE d   1       2.050  -0.692   1.132  0.00  0.00    -0.078 A 
ATOM      5  C3  OXE d   1       1.349  -1.410   2.097  0.00  0.00     0.003 A 
ATOM      6  C4  OXE d   1       0.621  -0.742   3.089  0.00  0.00    -0.002 A 
ATOM      7  C5  OXE d   1       0.679   0.652   3.194  0.00  0.00    -0.002 A 
ATOM      8  C6  OXE d   1       1.472   1.370   2.306  0.00  0.00     0.003 A 
ENDROOT
TORSDOF 0
ENDMDL
