MODEL 1
REMARK minimizedAffinity -2.96088076
REMARK minimizedRMSD -1
REMARK  0 active torsions:
REMARK  status: ('A' for Active; 'I' for Inactive)
ROOT
ATOM      1  C2' OXE d   1      -5.609   0.001  -4.515  0.00  0.00     0.078 C 
ATOM      2  C1' OXE d   1      -2.846   0.490  -4.587  0.00  0.00     0.078 C 
ATOM      3  C1  OXE d   1      -3.726   1.522  -3.928  0.00  0.00    -0.078 A 
ATOM      4  C2  OXE d   1      -5.081   1.297  -3.939  0.00  0.00    -0.078 A 
ATOM      5  C3  OXE d   1      -5.934   2.191  -3.297  0.00  0.00     0.003 A 
ATOM      6  C4  OXE d   1      -5.439   3.392  -2.775  0.00  0.00    -0.002 A 
ATOM      7  C5  OXE d   1      -4.066   3.660  -2.790  0.00  0.00    -0.002 A 
ATOM      8  C6  OXE d   1      -3.193   2.718  -3.323  0.00  0.00     0.003 A 
ENDROOT
TORSDOF 0
ENDMDL
