MODEL 1
REMARK minimizedAffinity -0.949331701
REMARK minimizedRMSD -1
REMARK  0 active torsions:
REMARK  status: ('A' for Active; 'I' for Inactive)
ROOT
ATOM      1  C2' OXE d   1      -1.846   0.752  -3.038  0.00  0.00     0.078 C 
ATOM      2  C1' OXE d   1      -2.670   3.412  -3.394  0.00  0.00     0.078 C 
ATOM      3  C1  OXE d   1      -3.714   2.329  -3.516  0.00  0.00    -0.078 A 
ATOM      4  C2  OXE d   1      -3.292   1.028  -3.387  0.00  0.00    -0.078 A 
ATOM      5  C3  OXE d   1      -4.223  -0.006  -3.436  0.00  0.00     0.003 A 
ATOM      6  C4  OXE d   1      -5.557   0.257  -3.769  0.00  0.00    -0.002 A 
ATOM      7  C5  OXE d   1      -6.000   1.572  -3.944  0.00  0.00    -0.002 A 
ATOM      8  C6  OXE d   1      -5.101   2.621  -3.779  0.00  0.00     0.003 A 
ENDROOT
TORSDOF 0
ENDMDL
