MODEL 1
REMARK minimizedAffinity 8.2137022
REMARK minimizedRMSD -1
REMARK  0 active torsions:
REMARK  status: ('A' for Active; 'I' for Inactive)
ROOT
ATOM      1  C2' OXE d   1      -5.929   0.358  -1.235  0.00  0.00     0.078 C 
ATOM      2  C1' OXE d   1      -5.399  -1.545  -3.229  0.00  0.00     0.078 C 
ATOM      3  C1  OXE d   1      -4.954  -0.125  -3.476  0.00  0.00    -0.078 A 
ATOM      4  C2  OXE d   1      -5.259   0.809  -2.515  0.00  0.00    -0.078 A 
ATOM      5  C3  OXE d   1      -4.823   2.122  -2.667  0.00  0.00     0.003 A 
ATOM      6  C4  OXE d   1      -4.213   2.533  -3.858  0.00  0.00    -0.002 A 
ATOM      7  C5  OXE d   1      -3.929   1.606  -4.867  0.00  0.00    -0.002 A 
ATOM      8  C6  OXE d   1      -4.254   0.268  -4.674  0.00  0.00     0.003 A 
ENDROOT
TORSDOF 0
ENDMDL
