MODEL 1
REMARK minimizedAffinity 1.5172683
REMARK minimizedRMSD -1
REMARK  0 active torsions:
REMARK  status: ('A' for Active; 'I' for Inactive)
ROOT
ATOM      1  C2' OXE d   1      -2.765  -0.000  -4.504  0.00  0.00     0.078 C 
ATOM      2  C1' OXE d   1      -5.527  -0.475  -4.671  0.00  0.00     0.078 C 
ATOM      3  C1  OXE d   1      -5.069   0.769  -3.952  0.00  0.00    -0.078 A 
ATOM      4  C2  OXE d   1      -3.715   0.969  -3.834  0.00  0.00    -0.078 A 
ATOM      5  C3  OXE d   1      -3.240   2.129  -3.228  0.00  0.00     0.003 A 
ATOM      6  C4  OXE d   1      -4.125   3.016  -2.603  0.00  0.00    -0.002 A 
ATOM      7  C5  OXE d   1      -5.506   2.810  -2.677  0.00  0.00    -0.002 A 
ATOM      8  C6  OXE d   1      -5.996   1.716  -3.382  0.00  0.00     0.003 A 
ENDROOT
TORSDOF 0
ENDMDL
