MODEL 1
REMARK minimizedAffinity -1.58677506
REMARK minimizedRMSD -1
REMARK  0 active torsions:
REMARK  status: ('A' for Active; 'I' for Inactive)
ROOT
ATOM      1  C2' OXE d   1       2.767  -1.245   1.589  0.00  0.00     0.078 C 
ATOM      2  C1' OXE d   1       1.814  -2.458  -0.757  0.00  0.00     0.078 C 
ATOM      3  C1  OXE d   1       2.706  -1.250  -0.902  0.00  0.00    -0.078 A 
ATOM      4  C2  OXE d   1       3.129  -0.635   0.252  0.00  0.00    -0.078 A 
ATOM      5  C3  OXE d   1       3.998   0.450   0.175  0.00  0.00     0.003 A 
ATOM      6  C4  OXE d   1       4.320   1.014  -1.066  0.00  0.00    -0.002 A 
ATOM      7  C5  OXE d   1       3.867   0.426  -2.252  0.00  0.00    -0.002 A 
ATOM      8  C6  OXE d   1       3.096  -0.729  -2.188  0.00  0.00     0.003 A 
ENDROOT
TORSDOF 0
ENDMDL
