MODEL 1
REMARK minimizedAffinity 1.04916453
REMARK minimizedRMSD -1
REMARK  0 active torsions:
REMARK  status: ('A' for Active; 'I' for Inactive)
ROOT
ATOM      1  C2' OXE d   1      -6.000   2.649  -3.377  0.00  0.00     0.078 C 
ATOM      2  C1' OXE d   1      -4.797   0.464  -4.665  0.00  0.00     0.078 C 
ATOM      3  C1  OXE d   1      -5.100   0.333  -3.194  0.00  0.00    -0.078 A 
ATOM      4  C2  OXE d   1      -5.646   1.424  -2.561  0.00  0.00    -0.078 A 
ATOM      5  C3  OXE d   1      -5.995   1.338  -1.217  0.00  0.00     0.003 A 
ATOM      6  C4  OXE d   1      -5.656   0.206  -0.467  0.00  0.00    -0.002 A 
ATOM      7  C5  OXE d   1      -5.063  -0.902  -1.083  0.00  0.00    -0.002 A 
ATOM      8  C6  OXE d   1      -4.819  -0.871  -2.451  0.00  0.00     0.003 A 
ENDROOT
TORSDOF 0
ENDMDL
