MODEL 1
REMARK minimizedAffinity 13.3340921
REMARK minimizedRMSD -1
REMARK  0 active torsions:
REMARK  status: ('A' for Active; 'I' for Inactive)
ROOT
ATOM      1  C2' OXE d   1      -4.621  -6.000  -5.305  0.00  0.00     0.078 C 
ATOM      2  C1' OXE d   1      -2.872  -3.865  -5.818  0.00  0.00     0.078 C 
ATOM      3  C1  OXE d   1      -2.922  -4.410  -4.413  0.00  0.00    -0.078 A 
ATOM      4  C2  OXE d   1      -3.815  -5.424  -4.160  0.00  0.00    -0.078 A 
ATOM      5  C3  OXE d   1      -3.863  -6.000  -2.894  0.00  0.00     0.003 A 
ATOM      6  C4  OXE d   1      -3.122  -5.455  -1.838  0.00  0.00    -0.002 A 
ATOM      7  C5  OXE d   1      -2.236  -4.396  -2.066  0.00  0.00    -0.002 A 
ATOM      8  C6  OXE d   1      -2.093  -3.891  -3.353  0.00  0.00     0.003 A 
ENDROOT
TORSDOF 0
ENDMDL
