MODEL 1
REMARK minimizedAffinity 1.73343873
REMARK minimizedRMSD -1
REMARK  0 active torsions:
REMARK  status: ('A' for Active; 'I' for Inactive)
ROOT
ATOM      1  C   UNL d   1       1.813  -2.170  -0.295  0.00  0.00     0.023 A 
ATOM      2  C1  UNL d   1       0.472  -1.829  -0.469  0.00  0.00     0.003 A 
ATOM      3  C2  UNL d   1       0.054  -0.510  -0.275  0.00  0.00     0.048 A 
ATOM      4  C3  UNL d   1       0.984   0.462   0.093  0.00  0.00     0.023 A 
ATOM      5  C4  UNL d   1       2.327   0.125   0.268  0.00  0.00     0.048 A 
ATOM      6  C5  UNL d   1       2.740  -1.194   0.073  0.00  0.00     0.003 A 
ATOM      7  I   UNL d   1       0.365   2.425   0.383  0.00  0.00    -0.146 I 
ENDROOT
TORSDOF 0
ENDMDL
