MODEL 1
REMARK minimizedAffinity -0.462308884
REMARK minimizedRMSD -1
REMARK  0 active torsions:
REMARK  status: ('A' for Active; 'I' for Inactive)
ROOT
ATOM      1  C   UNL d   1       0.719  -1.119  -0.744  0.00  0.00     0.023 A 
ATOM      2  C1  UNL d   1       0.412   0.241  -0.694  0.00  0.00     0.003 A 
ATOM      3  C2  UNL d   1      -0.693   0.683   0.036  0.00  0.00     0.048 A 
ATOM      4  C3  UNL d   1      -1.487  -0.240   0.716  0.00  0.00     0.023 A 
ATOM      5  C4  UNL d   1      -1.184  -1.602   0.670  0.00  0.00     0.048 A 
ATOM      6  C5  UNL d   1      -0.078  -2.039  -0.062  0.00  0.00     0.003 A 
ATOM      7  I   UNL d   1      -3.132   0.416   1.804  0.00  0.00    -0.146 I 
ENDROOT
TORSDOF 0
ENDMDL
