MODEL 1
REMARK minimizedAffinity -2.41478586
REMARK minimizedRMSD -1
REMARK  0 active torsions:
REMARK  status: ('A' for Active; 'I' for Inactive)
ROOT
ATOM      1  C   UNL d   1      -1.148   0.742  -0.279  0.00  0.00     0.023 A 
ATOM      2  C1  UNL d   1      -0.107   1.521   0.226  0.00  0.00     0.003 A 
ATOM      3  C2  UNL d   1       1.136   0.942   0.490  0.00  0.00     0.048 A 
ATOM      4  C3  UNL d   1       1.331  -0.417   0.245  0.00  0.00     0.023 A 
ATOM      5  C4  UNL d   1       0.292  -1.200  -0.261  0.00  0.00     0.048 A 
ATOM      6  C5  UNL d   1      -0.949  -0.617  -0.522  0.00  0.00     0.003 A 
ATOM      7  I   UNL d   1       3.180  -1.282   0.636  0.00  0.00    -0.146 I 
ENDROOT
TORSDOF 0
ENDMDL
