MODEL 1
REMARK minimizedAffinity -4.64908123
REMARK minimizedRMSD -1
REMARK  0 active torsions:
REMARK  status: ('A' for Active; 'I' for Inactive)
ROOT
ATOM      1  C   UNL d   1       4.641   0.800   0.768  0.00  0.00     0.023 A 
ATOM      2  C1  UNL d   1       3.674   1.768   0.493  0.00  0.00     0.003 A 
ATOM      3  C2  UNL d   1       2.330   1.405   0.393  0.00  0.00     0.048 A 
ATOM      4  C3  UNL d   1       1.958   0.072   0.570  0.00  0.00     0.023 A 
ATOM      5  C4  UNL d   1       2.922  -0.899   0.845  0.00  0.00     0.048 A 
ATOM      6  C5  UNL d   1       4.265  -0.532   0.943  0.00  0.00     0.003 A 
ATOM      7  I   UNL d   1      -0.043  -0.470   0.422  0.00  0.00    -0.146 I 
ENDROOT
TORSDOF 0
ENDMDL
