MODEL 1
REMARK minimizedAffinity -3.23696947
REMARK minimizedRMSD -1
REMARK  0 active torsions:
REMARK  status: ('A' for Active; 'I' for Inactive)
ROOT
ATOM      1  C   UNL d   1       3.000  -0.439   0.187  0.00  0.00     0.023 A 
ATOM      2  C1  UNL d   1       2.113  -1.500   0.372  0.00  0.00     0.003 A 
ATOM      3  C2  UNL d   1       0.736  -1.268   0.372  0.00  0.00     0.048 A 
ATOM      4  C3  UNL d   1       0.253   0.027   0.186  0.00  0.00     0.023 A 
ATOM      5  C4  UNL d   1       1.136   1.091  -0.000  0.00  0.00     0.048 A 
ATOM      6  C5  UNL d   1       2.512   0.854   0.001  0.00  0.00     0.003 A 
ATOM      7  I   UNL d   1      -1.796   0.374   0.187  0.00  0.00    -0.146 I 
ENDROOT
TORSDOF 0
ENDMDL
