MODEL 1
REMARK minimizedAffinity -4.17531204
REMARK minimizedRMSD -1
REMARK  0 active torsions:
REMARK  status: ('A' for Active; 'I' for Inactive)
ROOT
ATOM      1  C   UNL d   1       2.307  -0.696  -0.248  0.00  0.00     0.023 A 
ATOM      2  C1  UNL d   1       2.024   0.665  -0.135  0.00  0.00     0.003 A 
ATOM      3  C2  UNL d   1       0.700   1.100  -0.048  0.00  0.00     0.048 A 
ATOM      4  C3  UNL d   1      -0.337   0.167  -0.073  0.00  0.00     0.023 A 
ATOM      5  C4  UNL d   1      -0.058  -1.196  -0.185  0.00  0.00     0.048 A 
ATOM      6  C5  UNL d   1       1.267  -1.626  -0.273  0.00  0.00     0.003 A 
ATOM      7  I   UNL d   1      -2.309   0.811   0.056  0.00  0.00    -0.146 I 
ENDROOT
TORSDOF 0
ENDMDL
