MODEL 1
REMARK minimizedAffinity -4.43450308
REMARK minimizedRMSD -1
REMARK  0 active torsions:
REMARK  status: ('A' for Active; 'I' for Inactive)
ROOT
ATOM      1  C   UNL d   1       3.378  -0.916   0.265  0.00  0.00     0.023 A 
ATOM      2  C1  UNL d   1       2.919   0.226   0.921  0.00  0.00     0.003 A 
ATOM      3  C2  UNL d   1       1.567   0.571   0.863  0.00  0.00     0.048 A 
ATOM      4  C3  UNL d   1       0.679  -0.231   0.146  0.00  0.00     0.023 A 
ATOM      5  C4  UNL d   1       1.134  -1.375  -0.512  0.00  0.00     0.048 A 
ATOM      6  C5  UNL d   1       2.486  -1.716  -0.451  0.00  0.00     0.003 A 
ATOM      7  I   UNL d   1      -1.333   0.281   0.058  0.00  0.00    -0.146 I 
ENDROOT
TORSDOF 0
ENDMDL
