MODEL 1
REMARK minimizedAffinity -5.50707102
REMARK minimizedRMSD -1
REMARK  0 active torsions:
REMARK  status: ('A' for Active; 'I' for Inactive)
ROOT
ATOM      1  C   UNL d   1       2.833  -0.785   0.545  0.00  0.00     0.023 A 
ATOM      2  C1  UNL d   1       1.915  -1.674  -0.014  0.00  0.00     0.003 A 
ATOM      3  C2  UNL d   1       0.612  -1.254  -0.287  0.00  0.00     0.048 A 
ATOM      4  C3  UNL d   1       0.233   0.057   0.001  0.00  0.00     0.023 A 
ATOM      5  C4  UNL d   1       1.149   0.951   0.560  0.00  0.00     0.048 A 
ATOM      6  C5  UNL d   1       2.451   0.526   0.831  0.00  0.00     0.003 A 
ATOM      7  I   UNL d   1      -1.706   0.685  -0.404  0.00  0.00    -0.146 I 
ENDROOT
TORSDOF 0
ENDMDL
