MODEL 1
REMARK minimizedAffinity -1.36792481
REMARK minimizedRMSD -1
REMARK  0 active torsions:
REMARK  status: ('A' for Active; 'I' for Inactive)
ROOT
ATOM      1  N1  IND d   1       0.684   1.909  -1.100  0.00  0.00    -0.196 N 
ATOM      2  C2  IND d   1       1.513   0.866  -1.407  0.00  0.00     0.054 A 
ATOM      3  C3  IND d   1       1.269  -0.184  -0.591  0.00  0.00    -0.031 A 
ATOM      4  C4  IND d   1      -0.512  -0.447   1.249  0.00  0.00     0.051 A 
ATOM      5  C5  IND d   1      -1.479   0.249   1.919  0.00  0.00    -0.031 A 
ATOM      6  C6  IND d   1      -1.783   1.559   1.609  0.00  0.00     0.015 A 
ATOM      7  C7  IND d   1      -1.135   2.221   0.605  0.00  0.00    -0.016 A 
ATOM      8  C8  IND d   1      -0.147   1.521  -0.073  0.00  0.00    -0.047 A 
ATOM      9  C9  IND d   1       0.194   0.205   0.265  0.00  0.00    -0.096 A 
ATOM     10  HN1 IND d   1       0.683   2.678  -1.485  0.00  0.00     0.298 HD
ENDROOT
TORSDOF 0
ENDMDL
