MODEL 1
REMARK minimizedAffinity -3.87626266
REMARK minimizedRMSD -1
REMARK  0 active torsions:
REMARK  status: ('A' for Active; 'I' for Inactive)
ROOT
ATOM      1  N1  IND d   1       0.540   0.335  -0.639  0.00  0.00    -0.196 N 
ATOM      2  C2  IND d   1       0.484  -0.525   0.422  0.00  0.00     0.054 A 
ATOM      3  C3  IND d   1      -0.263   0.003   1.417  0.00  0.00    -0.031 A 
ATOM      4  C4  IND d   1      -1.572   2.219   1.481  0.00  0.00     0.051 A 
ATOM      5  C5  IND d   1      -1.796   3.358   0.761  0.00  0.00    -0.031 A 
ATOM      6  C6  IND d   1      -1.244   3.552  -0.489  0.00  0.00     0.015 A 
ATOM      7  C7  IND d   1      -0.453   2.603  -1.073  0.00  0.00    -0.016 A 
ATOM      8  C8  IND d   1      -0.217   1.447  -0.341  0.00  0.00    -0.047 A 
ATOM      9  C9  IND d   1      -0.740   1.264   0.945  0.00  0.00    -0.096 A 
ATOM     10  HN1 IND d   1       0.975   0.204  -1.369  0.00  0.00     0.298 HD
ENDROOT
TORSDOF 0
ENDMDL
