MODEL 1
REMARK minimizedAffinity -2.14307284
REMARK minimizedRMSD -1
REMARK  0 active torsions:
REMARK  status: ('A' for Active; 'I' for Inactive)
ROOT
ATOM      1  N1  IND d   1      -1.362   1.177   2.581  0.00  0.00    -0.196 N 
ATOM      2  C2  IND d   1      -2.132   2.231   2.175  0.00  0.00     0.054 A 
ATOM      3  C3  IND d   1      -2.008   2.418   0.842  0.00  0.00    -0.031 A 
ATOM      4  C4  IND d   1      -0.676   1.051  -0.885  0.00  0.00     0.051 A 
ATOM      5  C5  IND d   1       0.212   0.017  -0.987  0.00  0.00    -0.031 A 
ATOM      6  C6  IND d   1       0.627  -0.700   0.117  0.00  0.00     0.015 A 
ATOM      7  C7  IND d   1       0.159  -0.415   1.368  0.00  0.00    -0.016 A 
ATOM      8  C8  IND d   1      -0.738   0.639   1.477  0.00  0.00    -0.047 A 
ATOM      9  C9  IND d   1      -1.130   1.397   0.366  0.00  0.00    -0.096 A 
ATOM     10  HN1 IND d   1      -1.281   0.897   3.390  0.00  0.00     0.298 HD
ENDROOT
TORSDOF 0
ENDMDL
