MODEL 1
REMARK minimizedAffinity -0.942076802
REMARK minimizedRMSD -1
REMARK  0 active torsions:
REMARK  status: ('A' for Active; 'I' for Inactive)
ROOT
ATOM      1  N1  IND d   1       0.747   0.895  -1.166  0.00  0.00    -0.196 N 
ATOM      2  C2  IND d   1       0.330   1.906  -1.985  0.00  0.00     0.054 A 
ATOM      3  C3  IND d   1      -0.727   2.549  -1.439  0.00  0.00    -0.031 A 
ATOM      4  C4  IND d   1      -1.870   2.176   0.837  0.00  0.00     0.051 A 
ATOM      5  C5  IND d   1      -1.866   1.343   1.921  0.00  0.00    -0.031 A 
ATOM      6  C6  IND d   1      -0.970   0.300   2.035  0.00  0.00     0.015 A 
ATOM      7  C7  IND d   1      -0.034   0.055   1.070  0.00  0.00    -0.016 A 
ATOM      8  C8  IND d   1      -0.041   0.894  -0.035  0.00  0.00    -0.047 A 
ATOM      9  C9  IND d   1      -0.975   1.929  -0.176  0.00  0.00    -0.096 A 
ATOM     10  HN1 IND d   1       1.392   0.351  -1.329  0.00  0.00     0.298 HD
ENDROOT
TORSDOF 0
ENDMDL
