MODEL 1
REMARK minimizedAffinity -2.67888474
REMARK minimizedRMSD -1
REMARK  0 active torsions:
REMARK  status: ('A' for Active; 'I' for Inactive)
ROOT
ATOM      1  N1  IND d   1       0.266   2.555  -0.729  0.00  0.00    -0.196 N 
ATOM      2  C2  IND d   1       0.880   1.968  -1.801  0.00  0.00     0.054 A 
ATOM      3  C3  IND d   1       1.034   0.642  -1.586  0.00  0.00    -0.031 A 
ATOM      4  C4  IND d   1       0.263  -0.793   0.408  0.00  0.00     0.051 A 
ATOM      5  C5  IND d   1      -0.309  -0.698   1.645  0.00  0.00    -0.031 A 
ATOM      6  C6  IND d   1      -0.729   0.509   2.164  0.00  0.00     0.015 A 
ATOM      7  C7  IND d   1      -0.603   1.671   1.456  0.00  0.00    -0.016 A 
ATOM      8  C8  IND d   1      -0.016   1.580   0.202  0.00  0.00    -0.047 A 
ATOM      9  C9  IND d   1       0.451   0.364  -0.312  0.00  0.00    -0.096 A 
ATOM     10  HN1 IND d   1       0.087   3.392  -0.651  0.00  0.00     0.298 HD
ENDROOT
TORSDOF 0
ENDMDL
