MODEL 1
REMARK minimizedAffinity -5.3674221
REMARK minimizedRMSD -1
REMARK  0 active torsions:
REMARK  status: ('A' for Active; 'I' for Inactive)
ROOT
ATOM      1  N1  IND d   1       0.470   0.374  -1.114  0.00  0.00    -0.196 N 
ATOM      2  C2  IND d   1       0.977  -0.550  -0.244  0.00  0.00     0.054 A 
ATOM      3  C3  IND d   1       0.486  -0.345   0.999  0.00  0.00    -0.031 A 
ATOM      4  C4  IND d   1      -1.241   1.383   1.811  0.00  0.00     0.051 A 
ATOM      5  C5  IND d   1      -1.964   2.464   1.389  0.00  0.00    -0.031 A 
ATOM      6  C6  IND d   1      -1.913   2.911   0.085  0.00  0.00     0.015 A 
ATOM      7  C7  IND d   1      -1.143   2.284  -0.854  0.00  0.00    -0.016 A 
ATOM      8  C8  IND d   1      -0.403   1.190  -0.428  0.00  0.00    -0.047 A 
ATOM      9  C9  IND d   1      -0.417   0.758   0.905  0.00  0.00    -0.096 A 
ATOM     10  HN1 IND d   1       0.663   0.436  -1.950  0.00  0.00     0.298 HD
ENDROOT
TORSDOF 0
ENDMDL
