MODEL 1
REMARK minimizedAffinity -5.39169788
REMARK minimizedRMSD -1
REMARK  0 active torsions:
REMARK  status: ('A' for Active; 'I' for Inactive)
ROOT
ATOM      1  N1  IND d   1      -1.072   2.992   0.043  0.00  0.00    -0.196 N 
ATOM      2  C2  IND d   1      -1.814   3.017   1.191  0.00  0.00     0.054 A 
ATOM      3  C3  IND d   1      -1.745   1.824   1.822  0.00  0.00    -0.031 A 
ATOM      4  C4  IND d   1      -0.391  -0.277   1.204  0.00  0.00     0.051 A 
ATOM      5  C5  IND d   1       0.410  -0.793   0.225  0.00  0.00    -0.031 A 
ATOM      6  C6  IND d   1       0.768  -0.057  -0.887  0.00  0.00     0.015 A 
ATOM      7  C7  IND d   1       0.345   1.231  -1.055  0.00  0.00    -0.016 A 
ATOM      8  C8  IND d   1      -0.475   1.755  -0.066  0.00  0.00    -0.047 A 
ATOM      9  C9  IND d   1      -0.876   1.000   1.043  0.00  0.00    -0.096 A 
ATOM     10  HN1 IND d   1      -0.992   3.639  -0.517  0.00  0.00     0.298 HD
ENDROOT
TORSDOF 0
ENDMDL
