MODEL 1
REMARK minimizedAffinity 9.78013515
REMARK minimizedRMSD -1
REMARK  0 active torsions:
REMARK  status: ('A' for Active; 'I' for Inactive)
ROOT
ATOM      1  N1  IND d   1       0.289   1.355   0.238  0.00  0.00    -0.196 N 
ATOM      2  C2  IND d   1       0.997   0.454  -0.508  0.00  0.00     0.054 A 
ATOM      3  C3  IND d   1       0.996  -0.757   0.092  0.00  0.00    -0.031 A 
ATOM      4  C4  IND d   1      -0.188  -1.513   2.249  0.00  0.00     0.051 A 
ATOM      5  C5  IND d   1      -0.924  -1.036   3.298  0.00  0.00    -0.031 A 
ATOM      6  C6  IND d   1      -1.303   0.288   3.380  0.00  0.00     0.015 A 
ATOM      7  C7  IND d   1      -0.969   1.187   2.406  0.00  0.00    -0.016 A 
ATOM      8  C8  IND d   1      -0.215   0.708   1.344  0.00  0.00    -0.047 A 
ATOM      9  C9  IND d   1       0.209  -0.626   1.277  0.00  0.00    -0.096 A 
ATOM     10  HN1 IND d   1       0.178   2.186   0.048  0.00  0.00     0.298 HD
ENDROOT
TORSDOF 0
ENDMDL
