MODEL 1
REMARK minimizedAffinity 6.58034277
REMARK minimizedRMSD -1
REMARK  0 active torsions:
REMARK  status: ('A' for Active; 'I' for Inactive)
ROOT
ATOM      1  N1  IND d   1       0.663   0.970  -0.379  0.00  0.00    -0.196 N 
ATOM      2  C2  IND d   1       0.395  -0.363  -0.236  0.00  0.00     0.054 A 
ATOM      3  C3  IND d   1      -0.258  -0.590   0.926  0.00  0.00    -0.031 A 
ATOM      4  C4  IND d   1      -1.078   1.090   2.696  0.00  0.00     0.051 A 
ATOM      5  C5  IND d   1      -1.036   2.416   3.024  0.00  0.00    -0.031 A 
ATOM      6  C6  IND d   1      -0.416   3.347   2.216  0.00  0.00     0.015 A 
ATOM      7  C7  IND d   1       0.179   2.987   1.040  0.00  0.00    -0.016 A 
ATOM      8  C8  IND d   1       0.145   1.640   0.708  0.00  0.00    -0.047 A 
ATOM      9  C9  IND d   1      -0.446   0.684   1.544  0.00  0.00    -0.096 A 
ATOM     10  HN1 IND d   1       1.085   1.330  -1.036  0.00  0.00     0.298 HD
ENDROOT
TORSDOF 0
ENDMDL
