MODEL 1
REMARK minimizedAffinity -3.86930847
REMARK minimizedRMSD -1
REMARK  0 active torsions:
REMARK  status: ('A' for Active; 'I' for Inactive)
ROOT
ATOM      1  N1  IND d   1       0.763   1.736  -1.485  0.00  0.00    -0.196 N 
ATOM      2  C2  IND d   1       1.270   0.469  -1.552  0.00  0.00     0.054 A 
ATOM      3  C3  IND d   1       0.606  -0.350  -0.705  0.00  0.00    -0.031 A 
ATOM      4  C4  IND d   1      -1.411   0.155   0.812  0.00  0.00     0.051 A 
ATOM      5  C5  IND d   1      -2.205   1.181   1.242  0.00  0.00    -0.031 A 
ATOM      6  C6  IND d   1      -2.049   2.470   0.774  0.00  0.00     0.015 A 
ATOM      7  C7  IND d   1      -1.096   2.780  -0.155  0.00  0.00    -0.016 A 
ATOM      8  C8  IND d   1      -0.284   1.742  -0.588  0.00  0.00    -0.047 A 
ATOM      9  C9  IND d   1      -0.409   0.441  -0.085  0.00  0.00    -0.096 A 
ATOM     10  HN1 IND d   1       1.049   2.416  -1.927  0.00  0.00     0.298 HD
ENDROOT
TORSDOF 0
ENDMDL
