MODEL 1
REMARK minimizedAffinity -2.61224556
REMARK minimizedRMSD -1
REMARK  0 active torsions:
REMARK  status: ('A' for Active; 'I' for Inactive)
ROOT
ATOM      1  N1  IND d   1       0.738  -0.194   1.131  0.00  0.00    -0.196 N 
ATOM      2  C2  IND d   1       0.866  -0.796  -0.090  0.00  0.00     0.054 A 
ATOM      3  C3  IND d   1      -0.089  -0.349  -0.936  0.00  0.00    -0.031 A 
ATOM      4  C4  IND d   1      -1.899   1.442  -0.562  0.00  0.00     0.051 A 
ATOM      5  C5  IND d   1      -2.434   2.248   0.404  0.00  0.00    -0.031 A 
ATOM      6  C6  IND d   1      -1.926   2.284   1.687  0.00  0.00     0.015 A 
ATOM      7  C7  IND d   1      -0.853   1.520   2.050  0.00  0.00    -0.016 A 
ATOM      8  C8  IND d   1      -0.312   0.695   1.074  0.00  0.00    -0.047 A 
ATOM      9  C9  IND d   1      -0.850   0.623  -0.218  0.00  0.00    -0.096 A 
ATOM     10  HN1 IND d   1       1.232  -0.345   1.819  0.00  0.00     0.298 HD
ENDROOT
TORSDOF 0
ENDMDL
