MODEL 1
REMARK minimizedAffinity -3.62908673
REMARK minimizedRMSD -1
REMARK  0 active torsions:
REMARK  status: ('A' for Active; 'I' for Inactive)
ROOT
ATOM      1  N1  IND d   1       0.587  -0.283   1.013  0.00  0.00    -0.196 N 
ATOM      2  C2  IND d   1       0.143  -0.467   2.293  0.00  0.00     0.054 A 
ATOM      3  C3  IND d   1      -0.796   0.455   2.602  0.00  0.00    -0.031 A 
ATOM      4  C4  IND d   1      -1.831   2.294   1.127  0.00  0.00     0.051 A 
ATOM      5  C5  IND d   1      -1.721   2.875  -0.105  0.00  0.00    -0.031 A 
ATOM      6  C6  IND d   1      -0.821   2.423  -1.047  0.00  0.00     0.015 A 
ATOM      7  C7  IND d   1      -0.000   1.360  -0.796  0.00  0.00    -0.016 A 
ATOM      8  C8  IND d   1      -0.104   0.772   0.457  0.00  0.00    -0.047 A 
ATOM      9  C9  IND d   1      -0.986   1.253   1.433  0.00  0.00    -0.096 A 
ATOM     10  HN1 IND d   1       1.195  -0.748   0.621  0.00  0.00     0.298 HD
ENDROOT
TORSDOF 0
ENDMDL
