MODEL 1
REMARK minimizedAffinity -4.09673977
REMARK minimizedRMSD -1
REMARK  0 active torsions:
REMARK  status: ('A' for Active; 'I' for Inactive)
ROOT
ATOM      1  N1  IND d   1       1.136   0.284  -0.307  0.00  0.00    -0.196 N 
ATOM      2  C2  IND d   1       1.044   1.186  -1.331  0.00  0.00     0.054 A 
ATOM      3  C3  IND d   1      -0.069   1.940  -1.195  0.00  0.00    -0.031 A 
ATOM      4  C4  IND d   1      -1.828   1.936   0.685  0.00  0.00     0.051 A 
ATOM      5  C5  IND d   1      -2.191   1.265   1.819  0.00  0.00    -0.031 A 
ATOM      6  C6  IND d   1      -1.447   0.213   2.314  0.00  0.00     0.015 A 
ATOM      7  C7  IND d   1      -0.301  -0.201   1.696  0.00  0.00    -0.016 A 
ATOM      8  C8  IND d   1       0.067   0.474   0.541  0.00  0.00    -0.047 A 
ATOM      9  C9  IND d   1      -0.707   1.514   0.010  0.00  0.00    -0.096 A 
ATOM     10  HN1 IND d   1       1.757  -0.302  -0.209  0.00  0.00     0.298 HD
ENDROOT
TORSDOF 0
ENDMDL
