MODEL 1
REMARK minimizedAffinity -3.22104883
REMARK minimizedRMSD -1
REMARK  0 active torsions:
REMARK  status: ('A' for Active; 'I' for Inactive)
ROOT
ATOM      1  N1  IND d   1       0.092   0.316  -1.372  0.00  0.00    -0.196 N 
ATOM      2  C2  IND d   1       0.912  -0.763  -1.192  0.00  0.00     0.054 A 
ATOM      3  C3  IND d   1       0.952  -1.110   0.114  0.00  0.00    -0.031 A 
ATOM      4  C4  IND d   1      -0.329  -0.112   2.112  0.00  0.00     0.051 A 
ATOM      5  C5  IND d   1      -1.170   0.911   2.449  0.00  0.00    -0.031 A 
ATOM      6  C6  IND d   1      -1.645   1.804   1.511  0.00  0.00     0.015 A 
ATOM      7  C7  IND d   1      -1.305   1.700   0.192  0.00  0.00    -0.016 A 
ATOM      8  C8  IND d   1      -0.445   0.667  -0.153  0.00  0.00    -0.047 A 
ATOM      9  C9  IND d   1       0.075  -0.217   0.801  0.00  0.00    -0.096 A 
ATOM     10  HN1 IND d   1      -0.063   0.708  -2.121  0.00  0.00     0.298 HD
ENDROOT
TORSDOF 0
ENDMDL
