MODEL 1
REMARK minimizedAffinity 23.8313522
REMARK minimizedRMSD -1
REMARK  0 active torsions:
REMARK  status: ('A' for Active; 'I' for Inactive)
ROOT
ATOM      1  C   UNL d   1       5.121   0.312  -2.364  0.00  0.00     0.124 A 
ATOM      2  C1  UNL d   1       4.868   1.648  -2.084  0.00  0.00     0.062 A 
ATOM      3  C2  UNL d   1       4.743   2.569  -3.120  0.00  0.00     0.162 A 
ATOM      4  C3  UNL d   1       4.870   2.157  -4.447  0.00  0.00    -0.034 A 
ATOM      5  C4  UNL d   1       5.125   0.812  -4.720  0.00  0.00     0.162 A 
ATOM      6  C5  UNL d   1       5.249  -0.104  -3.681  0.00  0.00     0.062 A 
ATOM      7  F   UNL d   1       5.494  -1.394  -3.953  0.00  0.00    -0.097 F 
ATOM      8  F1  UNL d   1       5.253   0.382  -5.984  0.00  0.00    -0.096 F 
ATOM      9  I   UNL d   1       4.684   3.531  -5.999  0.00  0.00    -0.060 I 
ATOM     10  F2  UNL d   1       4.498   3.853  -2.821  0.00  0.00    -0.096 F 
ATOM     11  F3  UNL d   1       4.744   2.053  -0.812  0.00  0.00    -0.097 F 
ATOM     12  F4  UNL d   1       5.241  -0.571  -1.365  0.00  0.00    -0.092 F 
ENDROOT
TORSDOF 0
ENDMDL
