MODEL 1
REMARK minimizedAffinity 4.16851521
REMARK minimizedRMSD -1
REMARK  0 active torsions:
REMARK  status: ('A' for Active; 'I' for Inactive)
ROOT
ATOM      1  C   UNL d   1       5.505   0.010  -2.412  0.00  0.00     0.124 A 
ATOM      2  C1  UNL d   1       5.756  -0.382  -3.720  0.00  0.00     0.062 A 
ATOM      3  C2  UNL d   1       5.754   0.558  -4.746  0.00  0.00     0.162 A 
ATOM      4  C3  UNL d   1       5.501   1.902  -4.469  0.00  0.00    -0.034 A 
ATOM      5  C4  UNL d   1       5.248   2.289  -3.151  0.00  0.00     0.162 A 
ATOM      6  C5  UNL d   1       5.251   1.345  -2.129  0.00  0.00     0.062 A 
ATOM      7  F   UNL d   1       5.008   1.726  -0.867  0.00  0.00    -0.097 F 
ATOM      8  F1  UNL d   1       5.001   3.572  -2.850  0.00  0.00    -0.096 F 
ATOM      9  I   UNL d   1       5.497   3.311  -6.000  0.00  0.00    -0.060 I 
ATOM     10  F2  UNL d   1       6.000   0.150  -6.000  0.00  0.00    -0.096 F 
ATOM     11  F3  UNL d   1       6.000  -1.672  -3.996  0.00  0.00    -0.097 F 
ATOM     12  F4  UNL d   1       5.506  -0.897  -1.427  0.00  0.00    -0.092 F 
ENDROOT
TORSDOF 0
ENDMDL
