MODEL 1
REMARK minimizedAffinity 8.09625244
REMARK minimizedRMSD -1
REMARK  0 active torsions:
REMARK  status: ('A' for Active; 'I' for Inactive)
ROOT
ATOM      1  C   UNL d   1      -0.653   3.490   0.893  0.00  0.00     0.124 A 
ATOM      2  C1  UNL d   1      -1.764   3.820   0.129  0.00  0.00     0.062 A 
ATOM      3  C2  UNL d   1      -2.923   3.054   0.212  0.00  0.00     0.162 A 
ATOM      4  C3  UNL d   1      -2.977   1.949   1.062  0.00  0.00    -0.034 A 
ATOM      5  C4  UNL d   1      -1.855   1.622   1.826  0.00  0.00     0.162 A 
ATOM      6  C5  UNL d   1      -0.700   2.391   1.740  0.00  0.00     0.062 A 
ATOM      7  F   UNL d   1       0.373   2.071   2.478  0.00  0.00    -0.097 F 
ATOM      8  F1  UNL d   1      -1.873   0.567   2.653  0.00  0.00    -0.096 F 
ATOM      9  I   UNL d   1      -4.708   0.801   1.188  0.00  0.00    -0.060 I 
ATOM     10  F2  UNL d   1      -3.982   3.396  -0.537  0.00  0.00    -0.096 F 
ATOM     11  F3  UNL d   1      -1.721   4.880  -0.691  0.00  0.00    -0.097 F 
ATOM     12  F4  UNL d   1       0.461   4.228   0.811  0.00  0.00    -0.092 F 
ENDROOT
TORSDOF 0
ENDMDL
