MODEL 1
REMARK minimizedAffinity -0.149744436
REMARK minimizedRMSD -1
REMARK  0 active torsions:
REMARK  status: ('A' for Active; 'I' for Inactive)
ROOT
ATOM      1  C   UNL d   1       5.320   3.670  -3.648  0.00  0.00     0.124 A 
ATOM      2  C1  UNL d   1       5.274   2.956  -4.838  0.00  0.00     0.062 A 
ATOM      3  C2  UNL d   1       5.462   1.577  -4.834  0.00  0.00     0.162 A 
ATOM      4  C3  UNL d   1       5.697   0.902  -3.636  0.00  0.00    -0.034 A 
ATOM      5  C4  UNL d   1       5.743   1.627  -2.444  0.00  0.00     0.162 A 
ATOM      6  C5  UNL d   1       5.555   3.005  -2.453  0.00  0.00     0.062 A 
ATOM      7  F   UNL d   1       5.600   3.693  -1.303  0.00  0.00    -0.097 F 
ATOM      8  F1  UNL d   1       5.967   1.009  -1.275  0.00  0.00    -0.096 F 
ATOM      9  I   UNL d   1       5.979  -1.160  -3.627  0.00  0.00    -0.060 I 
ATOM     10  F2  UNL d   1       5.412   0.913  -5.998  0.00  0.00    -0.096 F 
ATOM     11  F3  UNL d   1       5.049   3.596  -5.994  0.00  0.00    -0.097 F 
ATOM     12  F4  UNL d   1       5.140   4.997  -3.655  0.00  0.00    -0.092 F 
ENDROOT
TORSDOF 0
ENDMDL
