MODEL 1
REMARK minimizedAffinity 22.4041996
REMARK minimizedRMSD -1
REMARK  0 active torsions:
REMARK  status: ('A' for Active; 'I' for Inactive)
ROOT
ATOM      1  C   UNL d   1       3.524  -5.436  -3.824  0.00  0.00     0.124 A 
ATOM      2  C1  UNL d   1       3.482  -5.435  -2.437  0.00  0.00     0.062 A 
ATOM      3  C2  UNL d   1       2.410  -4.849  -1.770  0.00  0.00     0.162 A 
ATOM      4  C3  UNL d   1       1.371  -4.259  -2.489  0.00  0.00    -0.034 A 
ATOM      5  C4  UNL d   1       1.421  -4.263  -3.884  0.00  0.00     0.162 A 
ATOM      6  C5  UNL d   1       2.494  -4.850  -4.546  0.00  0.00     0.062 A 
ATOM      7  F   UNL d   1       2.533  -4.850  -5.887  0.00  0.00    -0.097 F 
ATOM      8  F1  UNL d   1       0.439  -3.704  -4.607  0.00  0.00    -0.096 F 
ATOM      9  I   UNL d   1      -0.233  -3.381  -1.495  0.00  0.00    -0.060 I 
ATOM     10  F2  UNL d   1       2.396  -4.863  -0.429  0.00  0.00    -0.096 F 
ATOM     11  F3  UNL d   1       4.476  -6.000  -1.737  0.00  0.00    -0.097 F 
ATOM     12  F4  UNL d   1       4.557  -6.000  -4.464  0.00  0.00    -0.092 F 
ENDROOT
TORSDOF 0
ENDMDL
