MODEL 1
REMARK minimizedAffinity 20.3351727
REMARK minimizedRMSD -1
REMARK  0 active torsions:
REMARK  status: ('A' for Active; 'I' for Inactive)
ROOT
ATOM      1  C   UNL d   1      -0.844  -2.916  -1.122  0.00  0.00     0.124 A 
ATOM      2  C1  UNL d   1      -1.452  -4.160  -1.229  0.00  0.00     0.062 A 
ATOM      3  C2  UNL d   1      -1.952  -4.795  -0.096  0.00  0.00     0.162 A 
ATOM      4  C3  UNL d   1      -1.849  -4.186   1.155  0.00  0.00    -0.034 A 
ATOM      5  C4  UNL d   1      -1.236  -2.936   1.255  0.00  0.00     0.162 A 
ATOM      6  C5  UNL d   1      -0.737  -2.306   0.120  0.00  0.00     0.062 A 
ATOM      7  F   UNL d   1      -0.151  -1.104   0.226  0.00  0.00    -0.097 F 
ATOM      8  F1  UNL d   1      -1.119  -2.323   2.443  0.00  0.00    -0.096 F 
ATOM      9  I   UNL d   1      -2.596  -5.132   2.852  0.00  0.00    -0.060 I 
ATOM     10  F2  UNL d   1      -2.534  -5.996  -0.230  0.00  0.00    -0.096 F 
ATOM     11  F3  UNL d   1      -1.556  -4.752  -2.427  0.00  0.00    -0.097 F 
ATOM     12  F4  UNL d   1      -0.363  -2.308  -2.213  0.00  0.00    -0.092 F 
ENDROOT
TORSDOF 0
ENDMDL
