MODEL 1
REMARK minimizedAffinity 12.7593298
REMARK minimizedRMSD -1
REMARK  0 active torsions:
REMARK  status: ('A' for Active; 'I' for Inactive)
ROOT
ATOM      1  C   UNL d   1      -1.499  -1.401   1.957  0.00  0.00     0.124 A 
ATOM      2  C1  UNL d   1      -0.794  -0.603   1.067  0.00  0.00     0.062 A 
ATOM      3  C2  UNL d   1      -0.443  -1.094  -0.187  0.00  0.00     0.162 A 
ATOM      4  C3  UNL d   1      -0.798  -2.391  -0.559  0.00  0.00    -0.034 A 
ATOM      5  C4  UNL d   1      -1.506  -3.188   0.342  0.00  0.00     0.162 A 
ATOM      6  C5  UNL d   1      -1.855  -2.692   1.594  0.00  0.00     0.062 A 
ATOM      7  F   UNL d   1      -2.536  -3.465   2.453  0.00  0.00    -0.097 F 
ATOM      8  F1  UNL d   1      -1.863  -4.439   0.017  0.00  0.00    -0.096 F 
ATOM      9  I   UNL d   1      -0.275  -3.130  -2.433  0.00  0.00    -0.060 I 
ATOM     10  F2  UNL d   1       0.238  -0.301  -1.027  0.00  0.00    -0.096 F 
ATOM     11  F3  UNL d   1      -0.449   0.645   1.416  0.00  0.00    -0.097 F 
ATOM     12  F4  UNL d   1      -1.835  -0.925   3.164  0.00  0.00    -0.092 F 
ENDROOT
TORSDOF 0
ENDMDL
