MODEL 1
REMARK minimizedAffinity 20.0361137
REMARK minimizedRMSD -1
REMARK  0 active torsions:
REMARK  status: ('A' for Active; 'I' for Inactive)
ROOT
ATOM      1  C   UNL d   1      -0.655  -2.198  -0.628  0.00  0.00     0.124 A 
ATOM      2  C1  UNL d   1      -0.805  -1.821   0.699  0.00  0.00     0.062 A 
ATOM      3  C2  UNL d   1      -1.509  -2.634   1.583  0.00  0.00     0.162 A 
ATOM      4  C3  UNL d   1      -2.069  -3.833   1.142  0.00  0.00    -0.034 A 
ATOM      5  C4  UNL d   1      -1.915  -4.205  -0.195  0.00  0.00     0.162 A 
ATOM      6  C5  UNL d   1      -1.211  -3.389  -1.074  0.00  0.00     0.062 A 
ATOM      7  F   UNL d   1      -1.067  -3.756  -2.356  0.00  0.00    -0.097 F 
ATOM      8  F1  UNL d   1      -2.441  -5.351  -0.652  0.00  0.00    -0.096 F 
ATOM      9  I   UNL d   1      -3.123  -5.051   2.460  0.00  0.00    -0.060 I 
ATOM     10  F2  UNL d   1      -1.638  -2.244   2.860  0.00  0.00    -0.096 F 
ATOM     11  F3  UNL d   1      -0.270  -0.670   1.132  0.00  0.00    -0.097 F 
ATOM     12  F4  UNL d   1       0.022  -1.414  -1.477  0.00  0.00    -0.092 F 
ENDROOT
TORSDOF 0
ENDMDL
