MODEL 1
REMARK minimizedAffinity 10.5403004
REMARK minimizedRMSD -1
REMARK  0 active torsions:
REMARK  status: ('A' for Active; 'I' for Inactive)
ROOT
ATOM      1  C   UNL d   1      -0.385  -5.261  -2.261  0.00  0.00     0.124 A 
ATOM      2  C1  UNL d   1       0.977  -5.088  -2.059  0.00  0.00     0.062 A 
ATOM      3  C2  UNL d   1       1.864  -5.221  -3.123  0.00  0.00     0.162 A 
ATOM      4  C3  UNL d   1       1.392  -5.529  -4.399  0.00  0.00    -0.034 A 
ATOM      5  C4  UNL d   1       0.021  -5.703  -4.594  0.00  0.00     0.162 A 
ATOM      6  C5  UNL d   1      -0.862  -5.569  -3.527  0.00  0.00     0.062 A 
ATOM      7  F   UNL d   1      -2.178  -5.737  -3.724  0.00  0.00    -0.097 F 
ATOM      8  F1  UNL d   1      -0.467  -6.000  -5.808  0.00  0.00    -0.096 F 
ATOM      9  I   UNL d   1       2.716  -5.728  -5.993  0.00  0.00    -0.060 I 
ATOM     10  F2  UNL d   1       3.176  -5.047  -2.900  0.00  0.00    -0.096 F 
ATOM     11  F3  UNL d   1       1.440  -4.791  -0.836  0.00  0.00    -0.097 F 
ATOM     12  F4  UNL d   1      -1.237  -5.134  -1.235  0.00  0.00    -0.092 F 
ENDROOT
TORSDOF 0
ENDMDL
