MODEL 1
REMARK minimizedAffinity 15.8828783
REMARK minimizedRMSD -1
REMARK  0 active torsions:
REMARK  status: ('A' for Active; 'I' for Inactive)
ROOT
ATOM      1  C   UNL d   1      -0.636  -1.453   0.357  0.00  0.00     0.124 A 
ATOM      2  C1  UNL d   1      -0.446  -1.565  -1.013  0.00  0.00     0.062 A 
ATOM      3  C2  UNL d   1      -0.819  -2.730  -1.678  0.00  0.00     0.162 A 
ATOM      4  C3  UNL d   1      -1.387  -3.792  -0.974  0.00  0.00    -0.034 A 
ATOM      5  C4  UNL d   1      -1.574  -3.672   0.405  0.00  0.00     0.162 A 
ATOM      6  C5  UNL d   1      -1.199  -2.506   1.065  0.00  0.00     0.062 A 
ATOM      7  F   UNL d   1      -1.383  -2.399   2.389  0.00  0.00    -0.097 F 
ATOM      8  F1  UNL d   1      -2.117  -4.673   1.112  0.00  0.00    -0.096 F 
ATOM      9  I   UNL d   1      -1.946  -5.534  -1.965  0.00  0.00    -0.060 I 
ATOM     10  F2  UNL d   1      -0.624  -2.811  -3.003  0.00  0.00    -0.096 F 
ATOM     11  F3  UNL d   1       0.099  -0.550  -1.698  0.00  0.00    -0.097 F 
ATOM     12  F4  UNL d   1      -0.275  -0.332   0.995  0.00  0.00    -0.092 F 
ENDROOT
TORSDOF 0
ENDMDL
