MODEL 1
REMARK minimizedAffinity 18.7600994
REMARK minimizedRMSD -1
REMARK  0 active torsions:
REMARK  status: ('A' for Active; 'I' for Inactive)
ROOT
ATOM      1  C   UNL d   1       1.575   1.988   1.823  0.00  0.00     0.124 A 
ATOM      2  C1  UNL d   1       2.277   1.942   0.627  0.00  0.00     0.062 A 
ATOM      3  C2  UNL d   1       1.647   2.278  -0.568  0.00  0.00     0.162 A 
ATOM      4  C3  UNL d   1       0.307   2.666  -0.572  0.00  0.00    -0.034 A 
ATOM      5  C4  UNL d   1      -0.393   2.709   0.636  0.00  0.00     0.162 A 
ATOM      6  C5  UNL d   1       0.241   2.372   1.827  0.00  0.00     0.062 A 
ATOM      7  F   UNL d   1      -0.439   2.417   2.982  0.00  0.00    -0.097 F 
ATOM      8  F1  UNL d   1      -1.682   3.077   0.668  0.00  0.00    -0.096 F 
ATOM      9  I   UNL d   1      -0.639   3.171  -2.356  0.00  0.00    -0.060 I 
ATOM     10  F2  UNL d   1       2.350   2.225  -1.709  0.00  0.00    -0.096 F 
ATOM     11  F3  UNL d   1       3.565   1.570   0.621  0.00  0.00    -0.097 F 
ATOM     12  F4  UNL d   1       2.183   1.662   2.971  0.00  0.00    -0.092 F 
ENDROOT
TORSDOF 0
ENDMDL
