MODEL 1
REMARK minimizedAffinity 18.5930233
REMARK minimizedRMSD -1
REMARK  0 active torsions:
REMARK  status: ('A' for Active; 'I' for Inactive)
ROOT
ATOM      1  C   UNL d   1      -0.362   1.704   1.722  0.00  0.00     0.124 A 
ATOM      2  C1  UNL d   1      -0.520   2.715   0.785  0.00  0.00     0.062 A 
ATOM      3  C2  UNL d   1      -1.778   2.989   0.256  0.00  0.00     0.162 A 
ATOM      4  C3  UNL d   1      -2.889   2.251   0.663  0.00  0.00    -0.034 A 
ATOM      5  C4  UNL d   1      -2.722   1.235   1.606  0.00  0.00     0.162 A 
ATOM      6  C5  UNL d   1      -1.463   0.965   2.131  0.00  0.00     0.062 A 
ATOM      7  F   UNL d   1      -1.312  -0.013   3.036  0.00  0.00    -0.097 F 
ATOM      8  F1  UNL d   1      -3.769   0.505   2.020  0.00  0.00    -0.096 F 
ATOM      9  I   UNL d   1      -4.772   2.658  -0.125  0.00  0.00    -0.060 I 
ATOM     10  F2  UNL d   1      -1.901   3.973  -0.648  0.00  0.00    -0.096 F 
ATOM     11  F3  UNL d   1       0.542   3.430   0.387  0.00  0.00    -0.097 F 
ATOM     12  F4  UNL d   1       0.849   1.441   2.228  0.00  0.00    -0.092 F 
ENDROOT
TORSDOF 0
ENDMDL
