MODEL 1
REMARK minimizedAffinity 16.6540871
REMARK minimizedRMSD -1
REMARK  0 active torsions:
REMARK  status: ('A' for Active; 'I' for Inactive)
ROOT
ATOM      1  C   UNL d   1      -2.800   4.401  -2.645  0.00  0.00     0.124 A 
ATOM      2  C1  UNL d   1      -3.857   3.582  -3.015  0.00  0.00     0.062 A 
ATOM      3  C2  UNL d   1      -4.558   2.864  -2.051  0.00  0.00     0.162 A 
ATOM      4  C3  UNL d   1      -4.204   2.962  -0.705  0.00  0.00    -0.034 A 
ATOM      5  C4  UNL d   1      -3.139   3.787  -0.340  0.00  0.00     0.162 A 
ATOM      6  C5  UNL d   1      -2.442   4.503  -1.308  0.00  0.00     0.062 A 
ATOM      7  F   UNL d   1      -1.421   5.294  -0.947  0.00  0.00    -0.097 F 
ATOM      8  F1  UNL d   1      -2.772   3.905   0.945  0.00  0.00    -0.096 F 
ATOM      9  I   UNL d   1      -5.249   1.889   0.740  0.00  0.00    -0.060 I 
ATOM     10  F2  UNL d   1      -5.575   2.080  -2.438  0.00  0.00    -0.096 F 
ATOM     11  F3  UNL d   1      -4.204   3.481  -4.307  0.00  0.00    -0.097 F 
ATOM     12  F4  UNL d   1      -2.127   5.091  -3.575  0.00  0.00    -0.092 F 
ENDROOT
TORSDOF 0
ENDMDL
