MODEL 1
REMARK minimizedAffinity 18.4518089
REMARK minimizedRMSD -1
REMARK  0 active torsions:
REMARK  status: ('A' for Active; 'I' for Inactive)
ROOT
ATOM      1  C   UNL d   1      -0.484  -1.449  -1.734  0.00  0.00     0.124 A 
ATOM      2  C1  UNL d   1      -0.531  -1.863  -0.410  0.00  0.00     0.062 A 
ATOM      3  C2  UNL d   1      -0.163  -0.990   0.609  0.00  0.00     0.162 A 
ATOM      4  C3  UNL d   1       0.256   0.307   0.309  0.00  0.00    -0.034 A 
ATOM      5  C4  UNL d   1       0.302   0.715  -1.025  0.00  0.00     0.162 A 
ATOM      6  C5  UNL d   1      -0.068  -0.161  -2.040  0.00  0.00     0.062 A 
ATOM      7  F   UNL d   1      -0.021   0.240  -3.319  0.00  0.00    -0.097 F 
ATOM      8  F1  UNL d   1       0.699   1.954  -1.349  0.00  0.00    -0.096 F 
ATOM      9  I   UNL d   1       0.807   1.615   1.831  0.00  0.00    -0.060 I 
ATOM     10  F2  UNL d   1      -0.218  -1.416   1.880  0.00  0.00    -0.096 F 
ATOM     11  F3  UNL d   1      -0.932  -3.107  -0.112  0.00  0.00    -0.097 F 
ATOM     12  F4  UNL d   1      -0.838  -2.291  -2.713  0.00  0.00    -0.092 F 
ENDROOT
TORSDOF 0
ENDMDL
