MODEL 1
REMARK minimizedAffinity 1.5933975
REMARK minimizedRMSD -1
REMARK  0 active torsions:
REMARK  status: ('A' for Active; 'I' for Inactive)
ROOT
ATOM      1  C   UNL d   1      -4.490  -2.623  -3.307  0.00  0.00     0.172 C 
ATOM      2  N   UNL d   1      -4.918  -3.578  -4.301  0.00  0.00    -0.070 N 
ATOM      3  C1  UNL d   1      -5.886  -3.367  -5.246  0.00  0.00    -0.004 A 
ATOM      4  C2  UNL d   1      -5.998  -4.515  -6.000  0.00  0.00    -0.047 A 
ATOM      5  C3  UNL d   1      -5.065  -5.449  -5.489  0.00  0.00    -0.047 A 
ATOM      6  C4  UNL d   1      -4.411  -4.843  -4.438  0.00  0.00    -0.004 A 
ENDROOT
TORSDOF 0
ENDMDL
