MODEL 1
REMARK minimizedAffinity -2.01581311
REMARK minimizedRMSD -1
REMARK  0 active torsions:
REMARK  status: ('A' for Active; 'I' for Inactive)
ROOT
ATOM      1  C   UNL d   1       4.977   5.998  -5.507  0.00  0.00     0.172 C 
ATOM      2  N   UNL d   1       4.519   5.585  -4.202  0.00  0.00    -0.070 N 
ATOM      3  C1  UNL d   1       5.062   5.972  -3.005  0.00  0.00    -0.004 A 
ATOM      4  C2  UNL d   1       4.343   5.363  -1.999  0.00  0.00    -0.047 A 
ATOM      5  C3  UNL d   1       3.335   4.581  -2.612  0.00  0.00    -0.047 A 
ATOM      6  C4  UNL d   1       3.467   4.737  -3.976  0.00  0.00    -0.004 A 
ENDROOT
TORSDOF 0
ENDMDL
