MODEL 1
REMARK minimizedAffinity -0.0301485825
REMARK minimizedRMSD -1
REMARK  0 active torsions:
REMARK  status: ('A' for Active; 'I' for Inactive)
ROOT
ATOM      1  C   UNL d   1       0.678  -2.458   4.163  0.00  0.00     0.172 C 
ATOM      2  N   UNL d   1       0.987  -1.755   2.940  0.00  0.00    -0.070 N 
ATOM      3  C1  UNL d   1       1.442  -2.329   1.783  0.00  0.00    -0.004 A 
ATOM      4  C2  UNL d   1       1.614  -1.326   0.854  0.00  0.00    -0.047 A 
ATOM      5  C3  UNL d   1       1.251  -0.107   1.474  0.00  0.00    -0.047 A 
ATOM      6  C4  UNL d   1       0.866  -0.402   2.765  0.00  0.00    -0.004 A 
ENDROOT
TORSDOF 0
ENDMDL
