MODEL 1
REMARK minimizedAffinity 10.1822033
REMARK minimizedRMSD -1
REMARK  0 active torsions:
REMARK  status: ('A' for Active; 'I' for Inactive)
ROOT
ATOM      1  C   UNL d   1      -2.091   2.439   0.600  0.00  0.00     0.172 C 
ATOM      2  N   UNL d   1      -0.803   1.924   1.001  0.00  0.00    -0.070 N 
ATOM      3  C1  UNL d   1       0.237   2.669   1.490  0.00  0.00    -0.004 A 
ATOM      4  C2  UNL d   1       1.283   1.811   1.754  0.00  0.00    -0.047 A 
ATOM      5  C3  UNL d   1       0.857   0.506   1.410  0.00  0.00    -0.047 A 
ATOM      6  C4  UNL d   1      -0.438   0.605   0.947  0.00  0.00    -0.004 A 
ENDROOT
TORSDOF 0
ENDMDL
