MODEL 1
REMARK minimizedAffinity -1.31016088
REMARK minimizedRMSD -1
REMARK  0 active torsions:
REMARK  status: ('A' for Active; 'I' for Inactive)
ROOT
ATOM      1  C   UNL d   1       4.488  -0.471  -2.653  0.00  0.00     0.172 C 
ATOM      2  N   UNL d   1       4.860  -0.084  -3.994  0.00  0.00    -0.070 N 
ATOM      3  C1  UNL d   1       4.146   0.752  -4.811  0.00  0.00    -0.004 A 
ATOM      4  C2  UNL d   1       4.833   0.869  -5.999  0.00  0.00    -0.047 A 
ATOM      5  C3  UNL d   1       6.000   0.075  -5.894  0.00  0.00    -0.047 A 
ATOM      6  C4  UNL d   1       5.992  -0.503  -4.642  0.00  0.00    -0.004 A 
ENDROOT
TORSDOF 0
ENDMDL
