MODEL 1
REMARK minimizedAffinity 2.87026525
REMARK minimizedRMSD -1
REMARK  0 active torsions:
REMARK  status: ('A' for Active; 'I' for Inactive)
ROOT
ATOM      1  C   UNL d   1       1.197  -1.482   5.057  0.00  0.00     0.172 C 
ATOM      2  N   UNL d   1       1.347  -1.257   3.638  0.00  0.00    -0.070 N 
ATOM      3  C1  UNL d   1       0.750  -0.256   2.921  0.00  0.00    -0.004 A 
ATOM      4  C2  UNL d   1       1.145  -0.384   1.607  0.00  0.00    -0.047 A 
ATOM      5  C3  UNL d   1       2.009  -1.502   1.532  0.00  0.00    -0.047 A 
ATOM      6  C4  UNL d   1       2.117  -2.024   2.804  0.00  0.00    -0.004 A 
ENDROOT
TORSDOF 0
ENDMDL
