MODEL 1
REMARK minimizedAffinity -0.086656332
REMARK minimizedRMSD -1
REMARK  0 active torsions:
REMARK  status: ('A' for Active; 'I' for Inactive)
ROOT
ATOM      1  C   UNL d   1       5.999  -3.098   0.285  0.00  0.00     0.172 C 
ATOM      2  N   UNL d   1       4.729  -2.655   0.812  0.00  0.00    -0.070 N 
ATOM      3  C1  UNL d   1       4.544  -1.991   1.995  0.00  0.00    -0.004 A 
ATOM      4  C2  UNL d   1       3.195  -1.748   2.136  0.00  0.00    -0.047 A 
ATOM      5  C3  UNL d   1       2.547  -2.285   0.998  0.00  0.00    -0.047 A 
ATOM      6  C4  UNL d   1       3.520  -2.841   0.195  0.00  0.00    -0.004 A 
ENDROOT
TORSDOF 0
ENDMDL
