MODEL 1
REMARK minimizedAffinity 1.33590341
REMARK minimizedRMSD -1
REMARK  0 active torsions:
REMARK  status: ('A' for Active; 'I' for Inactive)
ROOT
ATOM      1  C   UNL d   1       0.770  -2.556   5.900  0.00  0.00     0.172 C 
ATOM      2  N   UNL d   1       1.278  -2.043   4.649  0.00  0.00    -0.070 N 
ATOM      3  C1  UNL d   1       2.202  -2.662   3.850  0.00  0.00    -0.004 A 
ATOM      4  C2  UNL d   1       2.420  -1.855   2.754  0.00  0.00    -0.047 A 
ATOM      5  C3  UNL d   1       1.599  -0.711   2.901  0.00  0.00    -0.047 A 
ATOM      6  C4  UNL d   1       0.903  -0.854   4.082  0.00  0.00    -0.004 A 
ENDROOT
TORSDOF 0
ENDMDL
