MODEL 1
REMARK minimizedAffinity -3.45000005
REMARK minimizedRMSD -1
REMARK  0 active torsions:
REMARK  status: ('A' for Active; 'I' for Inactive)
ROOT
ATOM      1  C   UNL d   1       0.777   0.336  -1.745  0.00  0.00     0.078 C 
ATOM      2  C1  UNL d   1       0.564   0.311  -3.229  0.00  0.00    -0.077 A 
ATOM      3  C2  UNL d   1       1.282   1.164  -4.075  0.00  0.00    -0.001 A 
ATOM      4  C3  UNL d   1       1.066   1.137  -5.454  0.00  0.00     0.003 A 
ATOM      5  C4  UNL d   1       0.131   0.259  -5.999  0.00  0.00    -0.005 A 
ATOM      6  C5  UNL d   1      -0.591  -0.592  -5.164  0.00  0.00     0.003 A 
ATOM      7  C6  UNL d   1      -0.376  -0.566  -3.785  0.00  0.00    -0.001 A 
ENDROOT
TORSDOF 0
ENDMDL
