MODEL 1
REMARK minimizedAffinity -4.62465954
REMARK minimizedRMSD -1
REMARK  0 active torsions:
REMARK  status: ('A' for Active; 'I' for Inactive)
ROOT
ATOM      1  C   UNL d   1       0.600  -0.069  -0.590  0.00  0.00     0.078 C 
ATOM      2  C1  UNL d   1       0.158   0.375   0.772  0.00  0.00    -0.077 A 
ATOM      3  C2  UNL d   1      -1.197   0.374   1.126  0.00  0.00    -0.001 A 
ATOM      4  C3  UNL d   1      -1.596   0.799   2.394  0.00  0.00     0.003 A 
ATOM      5  C4  UNL d   1      -0.646   1.229   3.319  0.00  0.00    -0.005 A 
ATOM      6  C5  UNL d   1       0.704   1.235   2.975  0.00  0.00     0.003 A 
ATOM      7  C6  UNL d   1       1.105   0.810   1.707  0.00  0.00    -0.001 A 
ENDROOT
TORSDOF 0
ENDMDL
