MODEL 1
REMARK minimizedAffinity -2.08178997
REMARK minimizedRMSD -1
REMARK  0 active torsions:
REMARK  status: ('A' for Active; 'I' for Inactive)
ROOT
ATOM      1  C   UNL d   1       0.975  -0.375  -1.365  0.00  0.00     0.078 C 
ATOM      2  C1  UNL d   1       0.754  -0.114  -2.825  0.00  0.00    -0.077 A 
ATOM      3  C2  UNL d   1      -0.284  -0.746  -3.521  0.00  0.00    -0.001 A 
ATOM      4  C3  UNL d   1      -0.472  -0.501  -4.882  0.00  0.00     0.003 A 
ATOM      5  C4  UNL d   1       0.375   0.375  -5.559  0.00  0.00    -0.005 A 
ATOM      6  C5  UNL d   1       1.412   1.006  -4.875  0.00  0.00     0.003 A 
ATOM      7  C6  UNL d   1       1.601   0.763  -3.514  0.00  0.00    -0.001 A 
ENDROOT
TORSDOF 0
ENDMDL
