MODEL 1
REMARK minimizedAffinity -4.43758392
REMARK minimizedRMSD -1
REMARK  0 active torsions:
REMARK  status: ('A' for Active; 'I' for Inactive)
ROOT
ATOM      1  C   UNL d   1      -1.527  -0.405  -5.745  0.00  0.00     0.078 C 
ATOM      2  C1  UNL d   1      -0.362  -0.152  -4.835  0.00  0.00    -0.077 A 
ATOM      3  C2  UNL d   1       0.884   0.230  -5.348  0.00  0.00    -0.001 A 
ATOM      4  C3  UNL d   1       1.962   0.452  -4.491  0.00  0.00     0.003 A 
ATOM      5  C4  UNL d   1       1.807   0.294  -3.115  0.00  0.00    -0.005 A 
ATOM      6  C5  UNL d   1       0.572  -0.089  -2.596  0.00  0.00     0.003 A 
ATOM      7  C6  UNL d   1      -0.508  -0.312  -3.452  0.00  0.00    -0.001 A 
ENDROOT
TORSDOF 0
ENDMDL
