MODEL 1
REMARK minimizedAffinity -4.32349348
REMARK minimizedRMSD -1
REMARK  0 active torsions:
REMARK  status: ('A' for Active; 'I' for Inactive)
ROOT
ATOM      1  C   UNL d   1       0.231  -0.137  -0.928  0.00  0.00     0.078 C 
ATOM      2  C1  UNL d   1      -0.232   0.337   0.417  0.00  0.00    -0.077 A 
ATOM      3  C2  UNL d   1      -1.516   0.035   0.886  0.00  0.00    -0.001 A 
ATOM      4  C3  UNL d   1      -1.937   0.491   2.136  0.00  0.00     0.003 A 
ATOM      5  C4  UNL d   1      -1.081   1.253   2.928  0.00  0.00    -0.005 A 
ATOM      6  C5  UNL d   1       0.198   1.561   2.469  0.00  0.00     0.003 A 
ATOM      7  C6  UNL d   1       0.621   1.106   1.219  0.00  0.00    -0.001 A 
ENDROOT
TORSDOF 0
ENDMDL
