MODEL 1
REMARK minimizedAffinity -2.46685743
REMARK minimizedRMSD -1
REMARK  0 active torsions:
REMARK  status: ('A' for Active; 'I' for Inactive)
ROOT
ATOM      1  C   UNL d   1      -0.912   1.584   3.162  0.00  0.00     0.078 C 
ATOM      2  C1  UNL d   1      -0.260   0.873   2.014  0.00  0.00    -0.077 A 
ATOM      3  C2  UNL d   1       1.081   0.475   2.080  0.00  0.00    -0.001 A 
ATOM      4  C3  UNL d   1       1.678  -0.177   1.000  0.00  0.00     0.003 A 
ATOM      5  C4  UNL d   1       0.942  -0.436  -0.154  0.00  0.00    -0.005 A 
ATOM      6  C5  UNL d   1      -0.393  -0.041  -0.230  0.00  0.00     0.003 A 
ATOM      7  C6  UNL d   1      -0.991   0.611   0.849  0.00  0.00    -0.001 A 
ENDROOT
TORSDOF 0
ENDMDL
