MODEL 1
REMARK minimizedAffinity -4.89142418
REMARK minimizedRMSD -1
REMARK  0 active torsions:
REMARK  status: ('A' for Active; 'I' for Inactive)
ROOT
ATOM      1  C   UNL d   1       0.291  -0.159  -1.182  0.00  0.00     0.078 C 
ATOM      2  C1  UNL d   1      -0.109   0.217   0.214  0.00  0.00    -0.077 A 
ATOM      3  C2  UNL d   1       0.631   1.153   0.948  0.00  0.00    -0.001 A 
ATOM      4  C3  UNL d   1       0.253   1.486   2.250  0.00  0.00     0.003 A 
ATOM      5  C4  UNL d   1      -0.865   0.888   2.829  0.00  0.00    -0.005 A 
ATOM      6  C5  UNL d   1      -1.605  -0.046   2.107  0.00  0.00     0.003 A 
ATOM      7  C6  UNL d   1      -1.229  -0.381   0.805  0.00  0.00    -0.001 A 
ENDROOT
TORSDOF 0
ENDMDL
