MODEL 1
REMARK minimizedAffinity 3.53112936
REMARK minimizedRMSD -1
REMARK  0 active torsions:
REMARK  status: ('A' for Active; 'I' for Inactive)
ROOT
ATOM      1  C   UNL d   1      -1.758  -1.087  -3.459  0.00  0.00     0.023 A 
ATOM      2  C1  UNL d   1      -3.125  -1.364  -3.424  0.00  0.00     0.003 A 
ATOM      3  C2  UNL d   1      -3.955  -0.676  -2.537  0.00  0.00     0.048 A 
ATOM      4  C3  UNL d   1      -3.412   0.288  -1.688  0.00  0.00     0.023 A 
ATOM      5  C4  UNL d   1      -2.045   0.569  -1.720  0.00  0.00     0.048 A 
ATOM      6  C5  UNL d   1      -1.219  -0.123  -2.608  0.00  0.00     0.003 A 
ATOM      7  I   UNL d   1      -4.645   1.314  -0.366  0.00  0.00    -0.146 I 
ENDROOT
TORSDOF 0
ENDMDL
