MODEL 1
REMARK minimizedAffinity 3.95180488
REMARK minimizedRMSD -1
REMARK  0 active torsions:
REMARK  status: ('A' for Active; 'I' for Inactive)
ROOT
ATOM      1  C   UNL d   1      -4.589  -0.089  -2.003  0.00  0.00     0.023 A 
ATOM      2  C1  UNL d   1      -5.024  -1.330  -1.538  0.00  0.00     0.003 A 
ATOM      3  C2  UNL d   1      -4.122  -2.204  -0.928  0.00  0.00     0.048 A 
ATOM      4  C3  UNL d   1      -2.786  -1.830  -0.785  0.00  0.00     0.023 A 
ATOM      5  C4  UNL d   1      -2.346  -0.589  -1.249  0.00  0.00     0.048 A 
ATOM      6  C5  UNL d   1      -3.251   0.281  -1.859  0.00  0.00     0.003 A 
ATOM      7  I   UNL d   1      -1.441  -3.129   0.123  0.00  0.00    -0.146 I 
ENDROOT
TORSDOF 0
ENDMDL
