MODEL 1
REMARK minimizedAffinity 9.45774746
REMARK minimizedRMSD -1
REMARK  0 active torsions:
REMARK  status: ('A' for Active; 'I' for Inactive)
ROOT
ATOM      1  C   UNL d   1       4.716  -2.231   3.379  0.00  0.00     0.023 A 
ATOM      2  C1  UNL d   1       4.545  -2.778   4.650  0.00  0.00     0.003 A 
ATOM      3  C2  UNL d   1       3.414  -2.457   5.404  0.00  0.00     0.048 A 
ATOM      4  C3  UNL d   1       2.458  -1.589   4.880  0.00  0.00     0.023 A 
ATOM      5  C4  UNL d   1       2.623  -1.040   3.608  0.00  0.00     0.048 A 
ATOM      6  C5  UNL d   1       3.756  -1.363   2.858  0.00  0.00     0.003 A 
ATOM      7  I   UNL d   1       0.773  -1.110   6.000  0.00  0.00    -0.146 I 
ENDROOT
TORSDOF 0
ENDMDL
