MODEL 1
REMARK minimizedAffinity 17.6452637
REMARK minimizedRMSD -1
REMARK  0 active torsions:
REMARK  status: ('A' for Active; 'I' for Inactive)
ROOT
ATOM      1  C   UNL d   1      -1.890  -2.958  -0.328  0.00  0.00     0.023 A 
ATOM      2  C1  UNL d   1      -1.151  -2.728   0.833  0.00  0.00     0.003 A 
ATOM      3  C2  UNL d   1      -0.017  -3.496   1.103  0.00  0.00     0.048 A 
ATOM      4  C3  UNL d   1       0.374  -4.492   0.209  0.00  0.00     0.023 A 
ATOM      5  C4  UNL d   1      -0.362  -4.725  -0.955  0.00  0.00     0.048 A 
ATOM      6  C5  UNL d   1      -1.496  -3.955  -1.221  0.00  0.00     0.003 A 
ATOM      7  I   UNL d   1       2.062  -5.636   0.609  0.00  0.00    -0.146 I 
ENDROOT
TORSDOF 0
ENDMDL
