MODEL 1
REMARK minimizedAffinity 1.59769344
REMARK minimizedRMSD -1
REMARK  0 active torsions:
REMARK  status: ('A' for Active; 'I' for Inactive)
ROOT
ATOM      1  C   UNL d   1       1.505  -3.701   0.237  0.00  0.00     0.023 A 
ATOM      2  C1  UNL d   1       0.560  -4.592  -0.273  0.00  0.00     0.003 A 
ATOM      3  C2  UNL d   1      -0.788  -4.231  -0.320  0.00  0.00     0.048 A 
ATOM      4  C3  UNL d   1      -1.185  -2.977   0.142  0.00  0.00     0.023 A 
ATOM      5  C4  UNL d   1      -0.243  -2.082   0.652  0.00  0.00     0.048 A 
ATOM      6  C5  UNL d   1       1.103  -2.447   0.699  0.00  0.00     0.003 A 
ATOM      7  I   UNL d   1      -3.191  -2.438   0.072  0.00  0.00    -0.146 I 
ENDROOT
TORSDOF 0
ENDMDL
