MODEL 1
REMARK minimizedAffinity 0.015044908
REMARK minimizedRMSD -1
REMARK  0 active torsions:
REMARK  status: ('A' for Active; 'I' for Inactive)
ROOT
ATOM      1  C   UNL d   1      -1.144   2.160  -0.036  0.00  0.00     0.023 A 
ATOM      2  C1  UNL d   1      -0.246   1.405  -0.791  0.00  0.00     0.003 A 
ATOM      3  C2  UNL d   1       0.683   0.580  -0.154  0.00  0.00     0.048 A 
ATOM      4  C3  UNL d   1       0.709   0.514   1.239  0.00  0.00     0.023 A 
ATOM      5  C4  UNL d   1      -0.188   1.267   1.999  0.00  0.00     0.048 A 
ATOM      6  C5  UNL d   1      -1.115   2.091   1.357  0.00  0.00     0.003 A 
ATOM      7  I   UNL d   1       2.091  -0.712   2.190  0.00  0.00    -0.146 I 
ENDROOT
TORSDOF 0
ENDMDL
