MODEL 1
REMARK minimizedAffinity 7.19185781
REMARK minimizedRMSD -1
REMARK  0 active torsions:
REMARK  status: ('A' for Active; 'I' for Inactive)
ROOT
ATOM      1  C   UNL d   1       1.152   0.525   3.290  0.00  0.00     0.023 A 
ATOM      2  C1  UNL d   1       0.687   1.813   3.029  0.00  0.00     0.003 A 
ATOM      3  C2  UNL d   1       0.260   2.157   1.745  0.00  0.00     0.048 A 
ATOM      4  C3  UNL d   1       0.301   1.207   0.725  0.00  0.00     0.023 A 
ATOM      5  C4  UNL d   1       0.765  -0.085   0.981  0.00  0.00     0.048 A 
ATOM      6  C5  UNL d   1       1.191  -0.423   2.267  0.00  0.00     0.003 A 
ATOM      7  I   UNL d   1      -0.333   1.716  -1.187  0.00  0.00    -0.146 I 
ENDROOT
TORSDOF 0
ENDMDL
