MODEL 1
REMARK minimizedAffinity -4.49096823
REMARK minimizedRMSD -1
REMARK  0 active torsions:
REMARK  status: ('A' for Active; 'I' for Inactive)
ROOT
ATOM      1  C   UNL d   1       0.333   0.800  -0.962  0.00  0.00     0.078 C 
ATOM      2  C1  UNL d   1      -0.102   0.418   0.422  0.00  0.00    -0.077 A 
ATOM      3  C2  UNL d   1      -1.394  -0.062   0.664  0.00  0.00    -0.001 A 
ATOM      4  C3  UNL d   1      -1.789  -0.405   1.958  0.00  0.00     0.003 A 
ATOM      5  C4  UNL d   1      -0.898  -0.268   3.021  0.00  0.00    -0.005 A 
ATOM      6  C5  UNL d   1       0.390   0.211   2.790  0.00  0.00     0.003 A 
ATOM      7  C6  UNL d   1       0.786   0.554   1.496  0.00  0.00    -0.001 A 
ENDROOT
TORSDOF 0
ENDMDL
