MODEL 1
REMARK minimizedAffinity 0.979623318
REMARK minimizedRMSD -1
REMARK  0 active torsions:
REMARK  status: ('A' for Active; 'I' for Inactive)
ROOT
ATOM      1  C   UNL d   1       2.835   2.258   1.200  0.00  0.00     0.078 C 
ATOM      2  C1  UNL d   1       1.779   1.283   1.629  0.00  0.00    -0.077 A 
ATOM      3  C2  UNL d   1       1.229   1.336   2.916  0.00  0.00    -0.001 A 
ATOM      4  C3  UNL d   1       0.253   0.416   3.304  0.00  0.00     0.003 A 
ATOM      5  C4  UNL d   1      -0.179  -0.564   2.412  0.00  0.00    -0.005 A 
ATOM      6  C5  UNL d   1       0.364  -0.625   1.131  0.00  0.00     0.003 A 
ATOM      7  C6  UNL d   1       1.339   0.294   0.741  0.00  0.00    -0.001 A 
ENDROOT
TORSDOF 0
ENDMDL
