MODEL 1
REMARK minimizedAffinity -5.16215181
REMARK minimizedRMSD -1
REMARK  0 active torsions:
REMARK  status: ('A' for Active; 'I' for Inactive)
ROOT
ATOM      1  C   UNL d   1       1.169   0.913   0.408  0.00  0.00     0.078 C 
ATOM      2  C1  UNL d   1       0.142   0.341   1.338  0.00  0.00    -0.077 A 
ATOM      3  C2  UNL d   1      -1.107  -0.077   0.864  0.00  0.00    -0.001 A 
ATOM      4  C3  UNL d   1      -2.057  -0.599   1.744  0.00  0.00     0.003 A 
ATOM      5  C4  UNL d   1      -1.768  -0.707   3.103  0.00  0.00    -0.005 A 
ATOM      6  C5  UNL d   1      -0.528  -0.292   3.584  0.00  0.00     0.003 A 
ATOM      7  C6  UNL d   1       0.423   0.230   2.706  0.00  0.00    -0.001 A 
ENDROOT
TORSDOF 0
ENDMDL
