MODEL 1
REMARK minimizedAffinity -5.66520548
REMARK minimizedRMSD -1
REMARK  0 active torsions:
REMARK  status: ('A' for Active; 'I' for Inactive)
ROOT
ATOM      1  C   UNL d   1       0.020   0.401  -0.982  0.00  0.00     0.078 C 
ATOM      2  C1  UNL d   1      -0.336   0.026   0.426  0.00  0.00    -0.077 A 
ATOM      3  C2  UNL d   1       0.623   0.059   1.446  0.00  0.00    -0.001 A 
ATOM      4  C3  UNL d   1       0.280  -0.302   2.750  0.00  0.00     0.003 A 
ATOM      5  C4  UNL d   1      -1.023  -0.698   3.046  0.00  0.00    -0.005 A 
ATOM      6  C5  UNL d   1      -1.984  -0.735   2.038  0.00  0.00     0.003 A 
ATOM      7  C6  UNL d   1      -1.642  -0.375   0.733  0.00  0.00    -0.001 A 
ENDROOT
TORSDOF 0
ENDMDL
