MODEL 1
REMARK minimizedAffinity -4.98685551
REMARK minimizedRMSD -1
REMARK  0 active torsions:
REMARK  status: ('A' for Active; 'I' for Inactive)
ROOT
ATOM      1  C   UNL d   1       0.009   0.636  -1.023  0.00  0.00     0.078 C 
ATOM      2  C1  UNL d   1      -0.376   0.230   0.368  0.00  0.00    -0.077 A 
ATOM      3  C2  UNL d   1      -1.658  -0.260   0.647  0.00  0.00    -0.001 A 
ATOM      4  C3  UNL d   1      -2.006  -0.625   1.948  0.00  0.00     0.003 A 
ATOM      5  C4  UNL d   1      -1.079  -0.502   2.981  0.00  0.00    -0.005 A 
ATOM      6  C5  UNL d   1       0.198  -0.014   2.714  0.00  0.00     0.003 A 
ATOM      7  C6  UNL d   1       0.548   0.352   1.413  0.00  0.00    -0.001 A 
ENDROOT
TORSDOF 0
ENDMDL
