MODEL 1
REMARK minimizedAffinity -4.79719973
REMARK minimizedRMSD -1
REMARK  0 active torsions:
REMARK  status: ('A' for Active; 'I' for Inactive)
ROOT
ATOM      1  C   UNL d   1       2.239   1.527   0.753  0.00  0.00     0.078 C 
ATOM      2  C1  UNL d   1       0.894   0.869   0.828  0.00  0.00    -0.077 A 
ATOM      3  C2  UNL d   1       0.053   0.818  -0.290  0.00  0.00    -0.001 A 
ATOM      4  C3  UNL d   1      -1.201   0.210  -0.203  0.00  0.00     0.003 A 
ATOM      5  C4  UNL d   1      -1.625  -0.349   1.001  0.00  0.00    -0.005 A 
ATOM      6  C5  UNL d   1      -0.796  -0.301   2.119  0.00  0.00     0.003 A 
ATOM      7  C6  UNL d   1       0.458   0.306   2.034  0.00  0.00    -0.001 A 
ENDROOT
TORSDOF 0
ENDMDL
