MODEL 1
REMARK minimizedAffinity -4.37905502
REMARK minimizedRMSD -1
REMARK  0 active torsions:
REMARK  status: ('A' for Active; 'I' for Inactive)
ROOT
ATOM      1  C   UNL d   1      -3.555   0.322   0.358  0.00  0.00     0.078 C 
ATOM      2  C1  UNL d   1      -2.064   0.368   0.516  0.00  0.00    -0.077 A 
ATOM      3  C2  UNL d   1      -1.226   0.519  -0.595  0.00  0.00    -0.001 A 
ATOM      4  C3  UNL d   1       0.160   0.551  -0.435  0.00  0.00     0.003 A 
ATOM      5  C4  UNL d   1       0.720   0.430   0.836  0.00  0.00    -0.005 A 
ATOM      6  C5  UNL d   1      -0.106   0.277   1.947  0.00  0.00     0.003 A 
ATOM      7  C6  UNL d   1      -1.492   0.245   1.788  0.00  0.00    -0.001 A 
ENDROOT
TORSDOF 0
ENDMDL
