MODEL 1
REMARK minimizedAffinity -3.13207412
REMARK minimizedRMSD -1
REMARK  0 active torsions:
REMARK  status: ('A' for Active; 'I' for Inactive)
ROOT
ATOM      1  C   UNL d   1      -0.435   0.112  -0.720  0.00  0.00     0.078 C 
ATOM      2  C1  UNL d   1      -0.510  -0.181   0.749  0.00  0.00    -0.077 A 
ATOM      3  C2  UNL d   1      -1.431  -1.107   1.253  0.00  0.00    -0.001 A 
ATOM      4  C3  UNL d   1      -1.497  -1.363   2.623  0.00  0.00     0.003 A 
ATOM      5  C4  UNL d   1      -0.646  -0.695   3.501  0.00  0.00    -0.005 A 
ATOM      6  C5  UNL d   1       0.272   0.231   3.009  0.00  0.00     0.003 A 
ATOM      7  C6  UNL d   1       0.340   0.487   1.639  0.00  0.00    -0.001 A 
ENDROOT
TORSDOF 0
ENDMDL
