MODEL 1
REMARK minimizedAffinity -6.0976634
REMARK minimizedRMSD -1
REMARK  0 active torsions:
REMARK  status: ('A' for Active; 'I' for Inactive)
ROOT
ATOM      1  C   UNL d   1      -0.124   0.379  -0.785  0.00  0.00     0.078 C 
ATOM      2  C1  UNL d   1      -0.645   0.189   0.609  0.00  0.00    -0.077 A 
ATOM      3  C2  UNL d   1      -2.020   0.197   0.872  0.00  0.00    -0.001 A 
ATOM      4  C3  UNL d   1      -2.490   0.029   2.175  0.00  0.00     0.003 A 
ATOM      5  C4  UNL d   1      -1.592  -0.148   3.226  0.00  0.00    -0.005 A 
ATOM      6  C5  UNL d   1      -0.222  -0.156   2.974  0.00  0.00     0.003 A 
ATOM      7  C6  UNL d   1       0.250   0.013   1.671  0.00  0.00    -0.001 A 
ENDROOT
TORSDOF 0
ENDMDL
