MODEL 1
REMARK minimizedAffinity -5.49524117
REMARK minimizedRMSD -1
REMARK  0 active torsions:
REMARK  status: ('A' for Active; 'I' for Inactive)
ROOT
ATOM      1  C   UNL d   1      -0.026   0.308  -0.970  0.00  0.00     0.078 C 
ATOM      2  C1  UNL d   1      -0.635   0.083   0.382  0.00  0.00    -0.077 A 
ATOM      3  C2  UNL d   1      -2.024   0.054   0.552  0.00  0.00    -0.001 A 
ATOM      4  C3  UNL d   1      -2.577  -0.146   1.818  0.00  0.00     0.003 A 
ATOM      5  C4  UNL d   1      -1.747  -0.317   2.924  0.00  0.00    -0.005 A 
ATOM      6  C5  UNL d   1      -0.363  -0.288   2.766  0.00  0.00     0.003 A 
ATOM      7  C6  UNL d   1       0.191  -0.088   1.500  0.00  0.00    -0.001 A 
ENDROOT
TORSDOF 0
ENDMDL
