MODEL 1
REMARK minimizedAffinity -5.14654255
REMARK minimizedRMSD -1
REMARK  0 active torsions:
REMARK  status: ('A' for Active; 'I' for Inactive)
ROOT
ATOM      1  C   UNL d   1      -0.124  -0.089   3.253  0.00  0.00     0.078 C 
ATOM      2  C1  UNL d   1      -0.105   0.202   1.782  0.00  0.00    -0.077 A 
ATOM      3  C2  UNL d   1       1.075   0.595   1.139  0.00  0.00    -0.001 A 
ATOM      4  C3  UNL d   1       1.075   0.872  -0.229  0.00  0.00     0.003 A 
ATOM      5  C4  UNL d   1      -0.102   0.759  -0.966  0.00  0.00    -0.005 A 
ATOM      6  C5  UNL d   1      -1.282   0.370  -0.335  0.00  0.00     0.003 A 
ATOM      7  C6  UNL d   1      -1.284   0.093   1.033  0.00  0.00    -0.001 A 
ENDROOT
TORSDOF 0
ENDMDL
