MODEL 1
REMARK minimizedAffinity -5.25375319
REMARK minimizedRMSD -1
REMARK  0 active torsions:
REMARK  status: ('A' for Active; 'I' for Inactive)
ROOT
ATOM      1  C   UNL d   1      -0.021   0.385  -1.389  0.00  0.00     0.078 C 
ATOM      2  C1  UNL d   1      -0.213   0.238   0.090  0.00  0.00    -0.077 A 
ATOM      3  C2  UNL d   1       0.848   0.449   0.980  0.00  0.00    -0.001 A 
ATOM      4  C3  UNL d   1       0.657   0.299   2.354  0.00  0.00     0.003 A 
ATOM      5  C4  UNL d   1      -0.594  -0.064   2.852  0.00  0.00    -0.005 A 
ATOM      6  C5  UNL d   1      -1.654  -0.278   1.974  0.00  0.00     0.003 A 
ATOM      7  C6  UNL d   1      -1.465  -0.129   0.599  0.00  0.00    -0.001 A 
ENDROOT
TORSDOF 0
ENDMDL
