MODEL 1
REMARK minimizedAffinity -5.57513475
REMARK minimizedRMSD -1
REMARK  0 active torsions:
REMARK  status: ('A' for Active; 'I' for Inactive)
ROOT
ATOM      1  C   UNL d   1      -0.020   1.007  -0.751  0.00  0.00     0.078 C 
ATOM      2  C1  UNL d   1      -0.278   0.310   0.552  0.00  0.00    -0.077 A 
ATOM      3  C2  UNL d   1       0.721   0.214   1.529  0.00  0.00    -0.001 A 
ATOM      4  C3  UNL d   1       0.469  -0.446   2.733  0.00  0.00     0.003 A 
ATOM      5  C4  UNL d   1      -0.780  -1.016   2.970  0.00  0.00    -0.005 A 
ATOM      6  C5  UNL d   1      -1.779  -0.927   2.004  0.00  0.00     0.003 A 
ATOM      7  C6  UNL d   1      -1.530  -0.268   0.799  0.00  0.00    -0.001 A 
ENDROOT
TORSDOF 0
ENDMDL
