MODEL 1
REMARK minimizedAffinity -3.58035779
REMARK minimizedRMSD -1
REMARK  0 active torsions:
REMARK  status: ('A' for Active; 'I' for Inactive)
ROOT
ATOM      1  C   UNL d   1      -1.155  -1.091   2.349  0.00  0.00     0.078 C 
ATOM      2  C1  UNL d   1      -0.499  -0.403   1.189  0.00  0.00    -0.077 A 
ATOM      3  C2  UNL d   1      -1.182  -0.217  -0.019  0.00  0.00    -0.001 A 
ATOM      4  C3  UNL d   1      -0.555   0.417  -1.093  0.00  0.00     0.003 A 
ATOM      5  C4  UNL d   1       0.758   0.867  -0.971  0.00  0.00    -0.005 A 
ATOM      6  C5  UNL d   1       1.446   0.684   0.227  0.00  0.00     0.003 A 
ATOM      7  C6  UNL d   1       0.821   0.051   1.303  0.00  0.00    -0.001 A 
ENDROOT
TORSDOF 0
ENDMDL
