MODEL 1
REMARK minimizedAffinity -4.41953516
REMARK minimizedRMSD -1
REMARK  0 active torsions:
REMARK  status: ('A' for Active; 'I' for Inactive)
ROOT
ATOM      1  C   UNL d   1      -3.326   1.058   1.534  0.00  0.00     0.078 C 
ATOM      2  C1  UNL d   1      -1.875   0.706   1.678  0.00  0.00    -0.077 A 
ATOM      3  C2  UNL d   1      -0.978   0.903   0.621  0.00  0.00    -0.001 A 
ATOM      4  C3  UNL d   1       0.368   0.561   0.766  0.00  0.00     0.003 A 
ATOM      5  C4  UNL d   1       0.828   0.020   1.965  0.00  0.00    -0.005 A 
ATOM      6  C5  UNL d   1      -0.058  -0.181   3.021  0.00  0.00     0.003 A 
ATOM      7  C6  UNL d   1      -1.404   0.160   2.878  0.00  0.00    -0.001 A 
ENDROOT
TORSDOF 0
ENDMDL
