MODEL 1
REMARK minimizedAffinity -4.66206884
REMARK minimizedRMSD -1
REMARK  0 active torsions:
REMARK  status: ('A' for Active; 'I' for Inactive)
ROOT
ATOM      1  C   UNL d   1       2.453   1.841   1.045  0.00  0.00     0.077 C 
ATOM      2  C1  UNL d   1       1.228   0.989   0.891  0.00  0.00    -0.074 A 
ATOM      3  C2  UNL d   1       0.608   0.842  -0.354  0.00  0.00    -0.005 A 
ATOM      4  C3  UNL d   1      -0.526   0.040  -0.484  0.00  0.00     0.006 A 
ATOM      5  C4  UNL d   1      -1.049  -0.622   0.627  0.00  0.00    -0.005 A 
ATOM      6  C5  UNL d   1      -0.442  -0.488   1.880  0.00  0.00    -0.074 A 
ATOM      7  C6  UNL d   1      -0.986  -1.200   3.082  0.00  0.00     0.077 C 
ATOM      8  C7  UNL d   1       0.701   0.315   2.001  0.00  0.00    -0.001 A 
ENDROOT
TORSDOF 0
ENDMDL
