MODEL 1
REMARK minimizedAffinity -3.71608067
REMARK minimizedRMSD -1
REMARK  0 active torsions:
REMARK  status: ('A' for Active; 'I' for Inactive)
ROOT
ATOM      1  C   UNL d   1      -0.388   0.186  -1.530  0.00  0.00     0.077 C 
ATOM      2  C1  UNL d   1       0.025   0.285  -0.092  0.00  0.00    -0.074 A 
ATOM      3  C2  UNL d   1       1.219   0.917   0.270  0.00  0.00    -0.005 A 
ATOM      4  C3  UNL d   1       1.586   1.011   1.613  0.00  0.00     0.006 A 
ATOM      5  C4  UNL d   1       0.765   0.474   2.605  0.00  0.00    -0.005 A 
ATOM      6  C5  UNL d   1      -0.433  -0.161   2.262  0.00  0.00    -0.074 A 
ATOM      7  C6  UNL d   1      -1.332  -0.734   3.316  0.00  0.00     0.077 C 
ATOM      8  C7  UNL d   1      -0.798  -0.244   0.911  0.00  0.00    -0.001 A 
ENDROOT
TORSDOF 0
ENDMDL
