MODEL 1
REMARK minimizedAffinity -3.81346583
REMARK minimizedRMSD -1
REMARK  0 active torsions:
REMARK  status: ('A' for Active; 'I' for Inactive)
ROOT
ATOM      1  C   UNL d   1      -0.717  -1.383  -0.326  0.00  0.00     0.077 C 
ATOM      2  C1  UNL d   1      -0.213  -0.493   0.771  0.00  0.00    -0.074 A 
ATOM      3  C2  UNL d   1      -0.774  -0.540   2.051  0.00  0.00    -0.005 A 
ATOM      4  C3  UNL d   1      -0.288   0.287   3.063  0.00  0.00     0.006 A 
ATOM      5  C4  UNL d   1       0.762   1.168   2.807  0.00  0.00    -0.005 A 
ATOM      6  C5  UNL d   1       1.337   1.229   1.533  0.00  0.00    -0.074 A 
ATOM      7  C6  UNL d   1       2.473   2.164   1.243  0.00  0.00     0.077 C 
ATOM      8  C7  UNL d   1       0.848   0.390   0.523  0.00  0.00    -0.001 A 
ENDROOT
TORSDOF 0
ENDMDL
