MODEL 1
REMARK minimizedAffinity -4.48208904
REMARK minimizedRMSD -1
REMARK  0 active torsions:
REMARK  status: ('A' for Active; 'I' for Inactive)
ROOT
ATOM      1  C   UNL d   1      -1.397  -0.553   3.408  0.00  0.00     0.077 C 
ATOM      2  C1  UNL d   1      -0.338  -0.147   2.427  0.00  0.00    -0.074 A 
ATOM      3  C2  UNL d   1       0.815   0.522   2.850  0.00  0.00    -0.005 A 
ATOM      4  C3  UNL d   1       1.796   0.885   1.927  0.00  0.00     0.006 A 
ATOM      5  C4  UNL d   1       1.635   0.582   0.574  0.00  0.00    -0.005 A 
ATOM      6  C5  UNL d   1       0.489  -0.088   0.133  0.00  0.00    -0.074 A 
ATOM      7  C6  UNL d   1       0.305  -0.429  -1.316  0.00  0.00     0.077 C 
ATOM      8  C7  UNL d   1      -0.489  -0.455   1.067  0.00  0.00    -0.001 A 
ENDROOT
TORSDOF 0
ENDMDL
