MODEL 1
REMARK minimizedAffinity -4.93444967
REMARK minimizedRMSD -1
REMARK  0 active torsions:
REMARK  status: ('A' for Active; 'I' for Inactive)
ROOT
ATOM      1  C   UNL d   1      -0.188   0.287  -1.019  0.00  0.00     0.077 C 
ATOM      2  C1  UNL d   1       0.263   0.312   0.411  0.00  0.00    -0.074 A 
ATOM      3  C2  UNL d   1       1.502   0.857   0.764  0.00  0.00    -0.005 A 
ATOM      4  C3  UNL d   1       1.905   0.882   2.099  0.00  0.00     0.006 A 
ATOM      5  C4  UNL d   1       1.074   0.364   3.093  0.00  0.00    -0.005 A 
ATOM      6  C5  UNL d   1      -0.169  -0.184   2.759  0.00  0.00    -0.074 A 
ATOM      7  C6  UNL d   1      -1.078  -0.736   3.817  0.00  0.00     0.077 C 
ATOM      8  C7  UNL d   1      -0.569  -0.199   1.416  0.00  0.00    -0.001 A 
ENDROOT
TORSDOF 0
ENDMDL
