MODEL 1
REMARK minimizedAffinity -3.1528945
REMARK minimizedRMSD -1
REMARK  0 active torsions:
REMARK  status: ('A' for Active; 'I' for Inactive)
ROOT
ATOM      1  C   UNL d   1       0.739   1.837   3.619  0.00  0.00     0.077 C 
ATOM      2  C1  UNL d   1       0.320   0.789   2.631  0.00  0.00    -0.074 A 
ATOM      3  C2  UNL d   1      -0.401  -0.337   3.041  0.00  0.00    -0.005 A 
ATOM      4  C3  UNL d   1      -0.792  -1.299   2.109  0.00  0.00     0.006 A 
ATOM      5  C4  UNL d   1      -0.466  -1.144   0.761  0.00  0.00    -0.005 A 
ATOM      6  C5  UNL d   1       0.254  -0.024   0.333  0.00  0.00    -0.074 A 
ATOM      7  C6  UNL d   1       0.604   0.162  -1.114  0.00  0.00     0.077 C 
ATOM      8  C7  UNL d   1       0.637   0.941   1.274  0.00  0.00    -0.001 A 
ENDROOT
TORSDOF 0
ENDMDL
