MODEL 1
REMARK minimizedAffinity -4.62803555
REMARK minimizedRMSD -1
REMARK  0 active torsions:
REMARK  status: ('A' for Active; 'I' for Inactive)
ROOT
ATOM      1  C   UNL d   1       2.926   1.155   1.032  0.00  0.00     0.077 C 
ATOM      2  C1  UNL d   1       1.544   0.592   0.884  0.00  0.00    -0.074 A 
ATOM      3  C2  UNL d   1       0.996   0.357  -0.381  0.00  0.00    -0.005 A 
ATOM      4  C3  UNL d   1      -0.287  -0.176  -0.504  0.00  0.00     0.006 A 
ATOM      5  C4  UNL d   1      -1.034  -0.478   0.635  0.00  0.00    -0.005 A 
ATOM      6  C5  UNL d   1      -0.502  -0.251   1.909  0.00  0.00    -0.074 A 
ATOM      7  C6  UNL d   1      -1.288  -0.580   3.143  0.00  0.00     0.077 C 
ATOM      8  C7  UNL d   1       0.791   0.278   2.023  0.00  0.00    -0.001 A 
ENDROOT
TORSDOF 0
ENDMDL
