MODEL 1
REMARK minimizedAffinity -4.71747923
REMARK minimizedRMSD -1
REMARK  0 active torsions:
REMARK  status: ('A' for Active; 'I' for Inactive)
ROOT
ATOM      1  C   UNL d   1       3.142   0.516  -3.938  0.00  0.00     0.077 C 
ATOM      2  C1  UNL d   1       2.087  -0.269  -3.216  0.00  0.00    -0.074 A 
ATOM      3  C2  UNL d   1       1.657  -1.509  -3.700  0.00  0.00    -0.005 A 
ATOM      4  C3  UNL d   1       0.682  -2.231  -3.012  0.00  0.00     0.006 A 
ATOM      5  C4  UNL d   1       0.128  -1.722  -1.837  0.00  0.00    -0.005 A 
ATOM      6  C5  UNL d   1       0.547  -0.485  -1.338  0.00  0.00    -0.074 A 
ATOM      7  C6  UNL d   1      -0.031   0.072  -0.071  0.00  0.00     0.077 C 
ATOM      8  C7  UNL d   1       1.532   0.232  -2.031  0.00  0.00    -0.001 A 
ENDROOT
TORSDOF 0
ENDMDL
