MODEL 1
REMARK minimizedAffinity -4.76145315
REMARK minimizedRMSD -1
REMARK  0 active torsions:
REMARK  status: ('A' for Active; 'I' for Inactive)
ROOT
ATOM      1  C   UNL d   1       2.470   0.469   1.880  0.00  0.00     0.077 C 
ATOM      2  C1  UNL d   1       1.125   0.251   1.254  0.00  0.00    -0.074 A 
ATOM      3  C2  UNL d   1       0.078  -0.326   1.981  0.00  0.00    -0.005 A 
ATOM      4  C3  UNL d   1      -1.170  -0.514   1.388  0.00  0.00     0.006 A 
ATOM      5  C4  UNL d   1      -1.385  -0.128   0.064  0.00  0.00    -0.005 A 
ATOM      6  C5  UNL d   1      -0.351   0.451  -0.678  0.00  0.00    -0.074 A 
ATOM      7  C6  UNL d   1      -0.567   0.880  -2.099  0.00  0.00     0.077 C 
ATOM      8  C7  UNL d   1       0.899   0.643  -0.073  0.00  0.00    -0.001 A 
ENDROOT
TORSDOF 0
ENDMDL
