MODEL 1
REMARK minimizedAffinity -4.44675255
REMARK minimizedRMSD -1
REMARK  0 active torsions:
REMARK  status: ('A' for Active; 'I' for Inactive)
ROOT
ATOM      1  C   UNL d   1       0.023  -0.871   2.888  0.00  0.00     0.077 C 
ATOM      2  C1  UNL d   1      -0.469  -0.433   1.541  0.00  0.00    -0.074 A 
ATOM      3  C2  UNL d   1      -1.835  -0.259   1.297  0.00  0.00    -0.005 A 
ATOM      4  C3  UNL d   1      -2.278   0.157   0.041  0.00  0.00     0.006 A 
ATOM      5  C4  UNL d   1      -1.361   0.403  -0.981  0.00  0.00    -0.005 A 
ATOM      6  C5  UNL d   1       0.009   0.235  -0.755  0.00  0.00    -0.074 A 
ATOM      7  C6  UNL d   1       1.009   0.504  -1.841  0.00  0.00     0.077 C 
ATOM      8  C7  UNL d   1       0.446  -0.177   0.511  0.00  0.00    -0.001 A 
ENDROOT
TORSDOF 0
ENDMDL
