MODEL 1
REMARK minimizedAffinity -5.94021988
REMARK minimizedRMSD -1
REMARK  0 active torsions:
REMARK  status: ('A' for Active; 'I' for Inactive)
ROOT
ATOM      1  C   UNL d   1       2.059  -0.035   1.110  0.00  0.00     0.077 C 
ATOM      2  C1  UNL d   1       0.668  -0.021   1.669  0.00  0.00    -0.074 A 
ATOM      3  C2  UNL d   1       0.442  -0.193   3.038  0.00  0.00    -0.005 A 
ATOM      4  C3  UNL d   1      -0.858  -0.169   3.545  0.00  0.00     0.006 A 
ATOM      5  C4  UNL d   1      -1.942   0.029   2.689  0.00  0.00    -0.005 A 
ATOM      6  C5  UNL d   1      -1.735   0.204   1.317  0.00  0.00    -0.074 A 
ATOM      7  C6  UNL d   1      -2.889   0.427   0.385  0.00  0.00     0.077 C 
ATOM      8  C7  UNL d   1      -0.426   0.185   0.817  0.00  0.00    -0.001 A 
ENDROOT
TORSDOF 0
ENDMDL
