MODEL 1
REMARK minimizedAffinity -4.50215244
REMARK minimizedRMSD -1
REMARK  0 active torsions:
REMARK  status: ('A' for Active; 'I' for Inactive)
ROOT
ATOM      1  C   UNL d   1       4.226  -0.293  -3.994  0.00  0.00     0.077 C 
ATOM      2  C1  UNL d   1       2.880  -0.774  -3.538  0.00  0.00    -0.074 A 
ATOM      3  C2  UNL d   1       2.312  -1.934  -4.075  0.00  0.00    -0.005 A 
ATOM      4  C3  UNL d   1       1.064  -2.375  -3.635  0.00  0.00     0.006 A 
ATOM      5  C4  UNL d   1       0.373  -1.662  -2.654  0.00  0.00    -0.005 A 
ATOM      6  C5  UNL d   1       0.926  -0.501  -2.104  0.00  0.00    -0.074 A 
ATOM      7  C6  UNL d   1       0.201   0.272  -1.042  0.00  0.00     0.077 C 
ATOM      8  C7  UNL d   1       2.184  -0.068  -2.547  0.00  0.00    -0.001 A 
ENDROOT
TORSDOF 0
ENDMDL
