MODEL 1
REMARK minimizedAffinity -1.48887348
REMARK minimizedRMSD -1
REMARK  0 active torsions:
REMARK  status: ('A' for Active; 'I' for Inactive)
ROOT
ATOM      1  C   UNL d   1      -1.565  -0.027   3.913  0.00  0.00     0.077 C 
ATOM      2  C1  UNL d   1      -1.064   0.055   2.501  0.00  0.00    -0.074 A 
ATOM      3  C2  UNL d   1      -1.949  -0.010   1.420  0.00  0.00    -0.005 A 
ATOM      4  C3  UNL d   1      -1.469   0.077   0.113  0.00  0.00     0.006 A 
ATOM      5  C4  UNL d   1      -0.103   0.228  -0.126  0.00  0.00    -0.005 A 
ATOM      6  C5  UNL d   1       0.797   0.295   0.943  0.00  0.00    -0.074 A 
ATOM      7  C6  UNL d   1       2.267   0.468   0.705  0.00  0.00     0.077 C 
ATOM      8  C7  UNL d   1       0.306   0.215   2.254  0.00  0.00    -0.001 A 
ENDROOT
TORSDOF 0
ENDMDL
