MODEL 1
REMARK minimizedAffinity -3.75280881
REMARK minimizedRMSD -1
REMARK  0 active torsions:
REMARK  status: ('A' for Active; 'I' for Inactive)
ROOT
ATOM      1  C   UNL d   1       2.077   0.351   1.101  0.00  0.00     0.077 C 
ATOM      2  C1  UNL d   1       0.729   0.261   1.752  0.00  0.00    -0.074 A 
ATOM      3  C2  UNL d   1       0.605   0.200   3.144  0.00  0.00    -0.005 A 
ATOM      4  C3  UNL d   1      -0.657   0.127   3.735  0.00  0.00     0.006 A 
ATOM      5  C4  UNL d   1      -1.805   0.113   2.941  0.00  0.00    -0.005 A 
ATOM      6  C5  UNL d   1      -1.700   0.173   1.548  0.00  0.00    -0.074 A 
ATOM      7  C6  UNL d   1      -2.924   0.169   0.681  0.00  0.00     0.077 C 
ATOM      8  C7  UNL d   1      -0.430   0.254   0.962  0.00  0.00    -0.001 A 
ENDROOT
TORSDOF 0
ENDMDL
