MODEL 1
REMARK minimizedAffinity -2.9725101
REMARK minimizedRMSD -1
REMARK  0 active torsions:
REMARK  status: ('A' for Active; 'I' for Inactive)
ROOT
ATOM      1  C   UNL d   1       1.260   1.528   3.589  0.00  0.00     0.077 C 
ATOM      2  C1  UNL d   1       0.458   0.719   2.614  0.00  0.00    -0.074 A 
ATOM      3  C2  UNL d   1      -0.600  -0.087   3.046  0.00  0.00    -0.005 A 
ATOM      4  C3  UNL d   1      -1.343  -0.826   2.126  0.00  0.00     0.006 A 
ATOM      5  C4  UNL d   1      -1.036  -0.768   0.766  0.00  0.00    -0.005 A 
ATOM      6  C5  UNL d   1       0.018   0.033   0.315  0.00  0.00    -0.074 A 
ATOM      7  C6  UNL d   1       0.355   0.115  -1.144  0.00  0.00     0.077 C 
ATOM      8  C7  UNL d   1       0.756   0.779   1.245  0.00  0.00    -0.001 A 
ENDROOT
TORSDOF 0
ENDMDL
