MODEL 1
REMARK minimizedAffinity -3.18265414
REMARK minimizedRMSD -1
REMARK  0 active torsions:
REMARK  status: ('A' for Active; 'I' for Inactive)
ROOT
ATOM      1  C   UNL d   1       2.574   0.175   3.041  0.00  0.00     0.077 C 
ATOM      2  C1  UNL d   1       1.278   0.030   2.300  0.00  0.00    -0.074 A 
ATOM      3  C2  UNL d   1       0.082  -0.210   2.984  0.00  0.00    -0.005 A 
ATOM      4  C3  UNL d   1      -1.117  -0.333   2.282  0.00  0.00     0.006 A 
ATOM      5  C4  UNL d   1      -1.132  -0.219   0.891  0.00  0.00    -0.005 A 
ATOM      6  C5  UNL d   1       0.054   0.022   0.190  0.00  0.00    -0.074 A 
ATOM      7  C6  UNL d   1       0.054   0.157  -1.304  0.00  0.00     0.077 C 
ATOM      8  C7  UNL d   1       1.254   0.151   0.903  0.00  0.00    -0.001 A 
ENDROOT
TORSDOF 0
ENDMDL
