MODEL 1
REMARK minimizedAffinity 6.63293743
REMARK minimizedRMSD -1
REMARK  0 active torsions:
REMARK  status: ('A' for Active; 'I' for Inactive)
ROOT
ATOM      1  C   UNL d   1       0.338  -0.423   2.990  0.00  0.00     0.023 A 
ATOM      2  C1  UNL d   1       0.058  -1.789   3.002  0.00  0.00     0.003 A 
ATOM      3  C2  UNL d   1       0.754  -2.638   3.865  0.00  0.00     0.048 A 
ATOM      4  C3  UNL d   1       1.728  -2.113   4.714  0.00  0.00     0.023 A 
ATOM      5  C4  UNL d   1       2.011  -0.746   4.706  0.00  0.00     0.048 A 
ATOM      6  C5  UNL d   1       1.313   0.098   3.840  0.00  0.00     0.003 A 
ATOM      7  I   UNL d   1       2.765  -3.374   6.000  0.00  0.00    -0.146 I 
ENDROOT
TORSDOF 0
ENDMDL
