MODEL 1
REMARK minimizedAffinity 1.20349026
REMARK minimizedRMSD -1
REMARK  0 active torsions:
REMARK  status: ('A' for Active; 'I' for Inactive)
ROOT
ATOM      1  C   UNL d   1       0.108  -0.553  -3.659  0.00  0.00     0.023 A 
ATOM      2  C1  UNL d   1      -0.825  -1.215  -2.861  0.00  0.00     0.003 A 
ATOM      3  C2  UNL d   1      -1.400  -2.409  -3.301  0.00  0.00     0.048 A 
ATOM      4  C3  UNL d   1      -1.035  -2.936  -4.540  0.00  0.00     0.023 A 
ATOM      5  C4  UNL d   1      -0.101  -2.278  -5.341  0.00  0.00     0.048 A 
ATOM      6  C5  UNL d   1       0.469  -1.083  -4.897  0.00  0.00     0.003 A 
ATOM      7  I   UNL d   1      -1.889  -4.714  -5.197  0.00  0.00    -0.146 I 
ENDROOT
TORSDOF 0
ENDMDL
