MODEL 1
REMARK minimizedAffinity 11.9445114
REMARK minimizedRMSD -1
REMARK  0 active torsions:
REMARK  status: ('A' for Active; 'I' for Inactive)
ROOT
ATOM      1  C   UNL d   1      -0.837   3.112   5.014  0.00  0.00     0.023 A 
ATOM      2  C1  UNL d   1      -1.052   2.709   3.696  0.00  0.00     0.003 A 
ATOM      3  C2  UNL d   1      -0.520   1.502   3.238  0.00  0.00     0.048 A 
ATOM      4  C3  UNL d   1       0.226   0.702   4.103  0.00  0.00     0.023 A 
ATOM      5  C4  UNL d   1       0.443   1.101   5.423  0.00  0.00     0.048 A 
ATOM      6  C5  UNL d   1      -0.091   2.309   5.876  0.00  0.00     0.003 A 
ATOM      7  I   UNL d   1       1.019  -1.095   3.424  0.00  0.00    -0.146 I 
ENDROOT
TORSDOF 0
ENDMDL
