MODEL 1
REMARK minimizedAffinity 8.61120701
REMARK minimizedRMSD -1
REMARK  0 active torsions:
REMARK  status: ('A' for Active; 'I' for Inactive)
ROOT
ATOM      1  C   UNL d   1       0.223   0.362   2.139  0.00  0.00     0.023 A 
ATOM      2  C1  UNL d   1      -0.198  -0.923   1.799  0.00  0.00     0.003 A 
ATOM      3  C2  UNL d   1       0.126  -2.006   2.620  0.00  0.00     0.048 A 
ATOM      4  C3  UNL d   1       0.870  -1.795   3.781  0.00  0.00     0.023 A 
ATOM      5  C4  UNL d   1       1.292  -0.510   4.126  0.00  0.00     0.048 A 
ATOM      6  C5  UNL d   1       0.967   0.569   3.301  0.00  0.00     0.003 A 
ATOM      7  I   UNL d   1       1.352  -3.404   5.005  0.00  0.00    -0.146 I 
ENDROOT
TORSDOF 0
ENDMDL
