MODEL 1
REMARK minimizedAffinity 12.4113817
REMARK minimizedRMSD -1
REMARK  0 active torsions:
REMARK  status: ('A' for Active; 'I' for Inactive)
ROOT
ATOM      1  C   UNL d   1       0.539   0.525   3.045  0.00  0.00     0.023 A 
ATOM      2  C1  UNL d   1      -0.709   0.931   2.571  0.00  0.00     0.003 A 
ATOM      3  C2  UNL d   1      -1.384   0.155   1.626  0.00  0.00     0.048 A 
ATOM      4  C3  UNL d   1      -0.807  -1.026   1.161  0.00  0.00     0.023 A 
ATOM      5  C4  UNL d   1       0.441  -1.436   1.634  0.00  0.00     0.048 A 
ATOM      6  C5  UNL d   1       1.113  -0.657   2.577  0.00  0.00     0.003 A 
ATOM      7  I   UNL d   1      -1.810  -2.183  -0.244  0.00  0.00    -0.146 I 
ENDROOT
TORSDOF 0
ENDMDL
