MODEL 1
REMARK minimizedAffinity 8.3245039
REMARK minimizedRMSD -1
REMARK  0 active torsions:
REMARK  status: ('A' for Active; 'I' for Inactive)
ROOT
ATOM      1  C   UNL d   1      -2.235  -5.999  -4.953  0.00  0.00     0.023 A 
ATOM      2  C1  UNL d   1      -2.215  -5.998  -3.559  0.00  0.00     0.003 A 
ATOM      3  C2  UNL d   1      -1.817  -4.853  -2.865  0.00  0.00     0.048 A 
ATOM      4  C3  UNL d   1      -1.442  -3.712  -3.573  0.00  0.00     0.023 A 
ATOM      5  C4  UNL d   1      -1.462  -3.708  -4.969  0.00  0.00     0.048 A 
ATOM      6  C5  UNL d   1      -1.859  -4.855  -5.658  0.00  0.00     0.003 A 
ATOM      7  I   UNL d   1      -0.850  -2.006  -2.543  0.00  0.00    -0.146 I 
ENDROOT
TORSDOF 0
ENDMDL
