MODEL 1
REMARK minimizedAffinity 11.5786009
REMARK minimizedRMSD -1
REMARK  0 active torsions:
REMARK  status: ('A' for Active; 'I' for Inactive)
ROOT
ATOM      1  C   UNL d   1       1.426  -1.381  -4.028  0.00  0.00     0.023 A 
ATOM      2  C1  UNL d   1       1.227  -0.046  -4.381  0.00  0.00     0.003 A 
ATOM      3  C2  UNL d   1       2.313   0.749  -4.753  0.00  0.00     0.048 A 
ATOM      4  C3  UNL d   1       3.595   0.202  -4.773  0.00  0.00     0.023 A 
ATOM      5  C4  UNL d   1       3.799  -1.133  -4.422  0.00  0.00     0.048 A 
ATOM      6  C5  UNL d   1       2.711  -1.924  -4.049  0.00  0.00     0.003 A 
ATOM      7  I   UNL d   1       5.213   1.383  -5.327  0.00  0.00    -0.146 I 
ENDROOT
TORSDOF 0
ENDMDL
