MODEL 1
REMARK minimizedAffinity 7.09025192
REMARK minimizedRMSD -1
REMARK  0 active torsions:
REMARK  status: ('A' for Active; 'I' for Inactive)
ROOT
ATOM      1  C   UNL d   1      -0.973   0.823   2.254  0.00  0.00     0.023 A 
ATOM      2  C1  UNL d   1      -0.152   1.204   3.316  0.00  0.00     0.003 A 
ATOM      3  C2  UNL d   1       0.653   0.258   3.952  0.00  0.00     0.048 A 
ATOM      4  C3  UNL d   1       0.633  -1.069   3.522  0.00  0.00     0.023 A 
ATOM      5  C4  UNL d   1      -0.186  -1.454   2.460  0.00  0.00     0.048 A 
ATOM      6  C5  UNL d   1      -0.990  -0.505   1.827  0.00  0.00     0.003 A 
ATOM      7  I   UNL d   1       1.831  -2.479   4.468  0.00  0.00    -0.146 I 
ENDROOT
TORSDOF 0
ENDMDL
