MODEL 1
REMARK minimizedAffinity 1.65397334
REMARK minimizedRMSD -1
REMARK  0 active torsions:
REMARK  status: ('A' for Active; 'I' for Inactive)
ROOT
ATOM      1  C2' OXE d   1      -2.355   2.587   2.222  0.00  0.00     0.078 C 
ATOM      2  C1' OXE d   1      -2.657  -0.136   2.834  0.00  0.00     0.078 C 
ATOM      3  C1  OXE d   1      -1.456   0.273   2.019  0.00  0.00    -0.078 A 
ATOM      4  C2  OXE d   1      -1.341   1.601   1.684  0.00  0.00    -0.078 A 
ATOM      5  C3  OXE d   1      -0.223   2.040   0.980  0.00  0.00     0.003 A 
ATOM      6  C4  OXE d   1       0.705   1.119   0.478  0.00  0.00    -0.002 A 
ATOM      7  C5  OXE d   1       0.585  -0.243   0.773  0.00  0.00    -0.002 A 
ATOM      8  C6  OXE d   1      -0.464  -0.676   1.577  0.00  0.00     0.003 A 
ENDROOT
TORSDOF 0
ENDMDL
