MODEL 1
REMARK minimizedAffinity 0.55148232
REMARK minimizedRMSD -1
REMARK  0 active torsions:
REMARK  status: ('A' for Active; 'I' for Inactive)
ROOT
ATOM      1  C2' OXE d   1       1.508   0.879   1.114  0.00  0.00     0.078 C 
ATOM      2  C1' OXE d   1       0.096  -1.419   1.892  0.00  0.00     0.078 C 
ATOM      3  C1  OXE d   1      -0.671  -0.124   1.786  0.00  0.00    -0.078 A 
ATOM      4  C2  OXE d   1       0.038   1.004   1.449  0.00  0.00    -0.078 A 
ATOM      5  C3  OXE d   1      -0.630   2.214   1.284  0.00  0.00     0.003 A 
ATOM      6  C4  OXE d   1      -1.988   2.324   1.606  0.00  0.00    -0.002 A 
ATOM      7  C5  OXE d   1      -2.720   1.195   1.989  0.00  0.00    -0.002 A 
ATOM      8  C6  OXE d   1      -2.087  -0.042   2.043  0.00  0.00     0.003 A 
ENDROOT
TORSDOF 0
ENDMDL
