MODEL 1
REMARK minimizedAffinity 2.1814959
REMARK minimizedRMSD -1
REMARK  0 active torsions:
REMARK  status: ('A' for Active; 'I' for Inactive)
ROOT
ATOM      1  C2' OXE d   1      -1.616   2.565   1.403  0.00  0.00     0.078 C 
ATOM      2  C1' OXE d   1      -1.552  -0.080   2.343  0.00  0.00     0.078 C 
ATOM      3  C1  OXE d   1      -0.358   0.420   1.568  0.00  0.00    -0.078 A 
ATOM      4  C2  OXE d   1      -0.418   1.700   1.071  0.00  0.00    -0.078 A 
ATOM      5  C3  OXE d   1       0.678   2.230   0.396  0.00  0.00     0.003 A 
ATOM      6  C4  OXE d   1       1.777   1.421   0.085  0.00  0.00    -0.002 A 
ATOM      7  C5  OXE d   1       1.841   0.102   0.546  0.00  0.00    -0.002 A 
ATOM      8  C6  OXE d   1       0.803  -0.399   1.324  0.00  0.00     0.003 A 
ENDROOT
TORSDOF 0
ENDMDL
