MODEL 1
REMARK minimizedAffinity 0.768055379
REMARK minimizedRMSD -1
REMARK  0 active torsions:
REMARK  status: ('A' for Active; 'I' for Inactive)
ROOT
ATOM      1  C2' OXE d   1       0.328   2.105   1.133  0.00  0.00     0.078 C 
ATOM      2  C1' OXE d   1       0.572  -0.560   1.981  0.00  0.00     0.078 C 
ATOM      3  C1  OXE d   1       1.404  -0.118   0.803  0.00  0.00    -0.078 A 
ATOM      4  C2  OXE d   1       1.243   1.175   0.365  0.00  0.00    -0.078 A 
ATOM      5  C3  OXE d   1       2.026   1.650  -0.683  0.00  0.00     0.003 A 
ATOM      6  C4  OXE d   1       2.862   0.780  -1.394  0.00  0.00    -0.002 A 
ATOM      7  C5  OXE d   1       3.011  -0.551  -0.989  0.00  0.00    -0.002 A 
ATOM      8  C6  OXE d   1       2.322  -1.003   0.131  0.00  0.00     0.003 A 
ENDROOT
TORSDOF 0
ENDMDL
