MODEL 1
REMARK minimizedAffinity 4.488585
REMARK minimizedRMSD -1
REMARK  0 active torsions:
REMARK  status: ('A' for Active; 'I' for Inactive)
ROOT
ATOM      1  C2' OXE d   1      -1.575   2.996   1.100  0.00  0.00     0.078 C 
ATOM      2  C1' OXE d   1       1.094   2.886   0.237  0.00  0.00     0.078 C 
ATOM      3  C1  OXE d   1       0.486   1.628   0.806  0.00  0.00    -0.078 A 
ATOM      4  C2  OXE d   1      -0.805   1.703   1.268  0.00  0.00    -0.078 A 
ATOM      5  C3  OXE d   1      -1.432   0.558   1.752  0.00  0.00     0.003 A 
ATOM      6  C4  OXE d   1      -0.710  -0.630   1.914  0.00  0.00    -0.002 A 
ATOM      7  C5  OXE d   1       0.619  -0.717   1.486  0.00  0.00    -0.002 A 
ATOM      8  C6  OXE d   1       1.218   0.388   0.892  0.00  0.00     0.003 A 
ENDROOT
TORSDOF 0
ENDMDL
