MODEL 1
REMARK minimizedAffinity -1.16508603
REMARK minimizedRMSD -1
REMARK  0 active torsions:
REMARK  status: ('A' for Active; 'I' for Inactive)
ROOT
ATOM      1  C2' OXE d   1       1.339   0.381   0.402  0.00  0.00     0.078 C 
ATOM      2  C1' OXE d   1      -0.274  -1.738   1.287  0.00  0.00     0.078 C 
ATOM      3  C1  OXE d   1      -0.796  -0.334   1.466  0.00  0.00    -0.078 A 
ATOM      4  C2  OXE d   1       0.020   0.698   1.073  0.00  0.00    -0.078 A 
ATOM      5  C3  OXE d   1      -0.435   2.011   1.165  0.00  0.00     0.003 A 
ATOM      6  C4  OXE d   1      -1.652   2.296   1.795  0.00  0.00    -0.002 A 
ATOM      7  C5  OXE d   1      -2.482   1.260   2.239  0.00  0.00    -0.002 A 
ATOM      8  C6  OXE d   1      -2.088  -0.059   2.044  0.00  0.00     0.003 A 
ENDROOT
TORSDOF 0
ENDMDL
