MODEL 1
REMARK minimizedAffinity 4.96803045
REMARK minimizedRMSD -1
REMARK  0 active torsions:
REMARK  status: ('A' for Active; 'I' for Inactive)
ROOT
ATOM      1  C2' OXE d   1      -2.641   2.314   1.924  0.00  0.00     0.078 C 
ATOM      2  C1' OXE d   1      -2.660  -0.492   1.886  0.00  0.00     0.078 C 
ATOM      3  C1  OXE d   1      -1.366   0.207   1.552  0.00  0.00    -0.078 A 
ATOM      4  C2  OXE d   1      -1.378   1.581   1.527  0.00  0.00    -0.078 A 
ATOM      5  C3  OXE d   1      -0.198   2.276   1.278  0.00  0.00     0.003 A 
ATOM      6  C4  OXE d   1       0.963   1.589   0.902  0.00  0.00    -0.002 A 
ATOM      7  C5  OXE d   1       0.986   0.191   0.882  0.00  0.00    -0.002 A 
ATOM      8  C6  OXE d   1      -0.156  -0.515   1.245  0.00  0.00     0.003 A 
ENDROOT
TORSDOF 0
ENDMDL
