MODEL 1
REMARK minimizedAffinity 9.88931942
REMARK minimizedRMSD -1
REMARK  0 active torsions:
REMARK  status: ('A' for Active; 'I' for Inactive)
ROOT
ATOM      1  C2' OXE d   1       1.835  -0.713   2.986  0.00  0.00     0.078 C 
ATOM      2  C1' OXE d   1      -0.784  -1.701   3.193  0.00  0.00     0.078 C 
ATOM      3  C1  OXE d   1      -0.601  -0.293   2.683  0.00  0.00    -0.078 A 
ATOM      4  C2  OXE d   1       0.681   0.198   2.630  0.00  0.00    -0.078 A 
ATOM      5  C3  OXE d   1       0.910   1.472   2.116  0.00  0.00     0.003 A 
ATOM      6  C4  OXE d   1      -0.164   2.312   1.798  0.00  0.00    -0.002 A 
ATOM      7  C5  OXE d   1      -1.480   1.845   1.883  0.00  0.00    -0.002 A 
ATOM      8  C6  OXE d   1      -1.713   0.533   2.283  0.00  0.00     0.003 A 
ENDROOT
TORSDOF 0
ENDMDL
