MODEL 1
REMARK minimizedAffinity -0.6374951
REMARK minimizedRMSD -1
REMARK  0 active torsions:
REMARK  status: ('A' for Active; 'I' for Inactive)
ROOT
ATOM      1  C2' OXE d   1      -1.971   2.676   1.538  0.00  0.00     0.078 C 
ATOM      2  C1' OXE d   1      -2.072  -0.089   2.010  0.00  0.00     0.078 C 
ATOM      3  C1  OXE d   1      -0.794   0.482   1.450  0.00  0.00    -0.078 A 
ATOM      4  C2  OXE d   1      -0.769   1.829   1.178  0.00  0.00    -0.078 A 
ATOM      5  C3  OXE d   1       0.403   2.417   0.711  0.00  0.00     0.003 A 
ATOM      6  C4  OXE d   1       1.506   1.624   0.371  0.00  0.00    -0.002 A 
ATOM      7  C5  OXE d   1       1.488   0.245   0.603  0.00  0.00    -0.002 A 
ATOM      8  C6  OXE d   1       0.364  -0.334   1.180  0.00  0.00     0.003 A 
ENDROOT
TORSDOF 0
ENDMDL
