MODEL 1
REMARK minimizedAffinity 2.08779192
REMARK minimizedRMSD -1
REMARK  0 active torsions:
REMARK  status: ('A' for Active; 'I' for Inactive)
ROOT
ATOM      1  C2' OXE d   1      -2.778  -0.628   1.632  0.00  0.00     0.078 C 
ATOM      2  C1' OXE d   1      -0.352  -1.826   2.379  0.00  0.00     0.078 C 
ATOM      3  C1  OXE d   1      -0.298  -0.446   1.772  0.00  0.00    -0.078 A 
ATOM      4  C2  OXE d   1      -1.486   0.113   1.366  0.00  0.00    -0.078 A 
ATOM      5  C3  OXE d   1      -1.498   1.406   0.850  0.00  0.00     0.003 A 
ATOM      6  C4  OXE d   1      -0.297   2.080   0.598  0.00  0.00    -0.002 A 
ATOM      7  C5  OXE d   1       0.927   1.512   0.967  0.00  0.00    -0.002 A 
ATOM      8  C6  OXE d   1       0.941   0.270   1.593  0.00  0.00     0.003 A 
ENDROOT
TORSDOF 0
ENDMDL
