MODEL 1
REMARK minimizedAffinity 0.681933105
REMARK minimizedRMSD -1
REMARK  0 active torsions:
REMARK  status: ('A' for Active; 'I' for Inactive)
ROOT
ATOM      1  C2' OXE d   1      -3.032   1.983   3.024  0.00  0.00     0.078 C 
ATOM      2  C1' OXE d   1      -2.708  -0.777   2.628  0.00  0.00     0.078 C 
ATOM      3  C1  OXE d   1      -1.613   0.138   2.139  0.00  0.00    -0.078 A 
ATOM      4  C2  OXE d   1      -1.801   1.490   2.295  0.00  0.00    -0.078 A 
ATOM      5  C3  OXE d   1      -0.798   2.375   1.912  0.00  0.00     0.003 A 
ATOM      6  C4  OXE d   1       0.334   1.911   1.229  0.00  0.00    -0.002 A 
ATOM      7  C5  OXE d   1       0.527   0.541   1.024  0.00  0.00    -0.002 A 
ATOM      8  C6  OXE d   1      -0.415  -0.360   1.510  0.00  0.00     0.003 A 
ENDROOT
TORSDOF 0
ENDMDL
