MODEL 1
REMARK minimizedAffinity -0.497268111
REMARK minimizedRMSD -1
REMARK  0 active torsions:
REMARK  status: ('A' for Active; 'I' for Inactive)
ROOT
ATOM      1  C2' OXE d   1      -2.069   2.547   2.491  0.00  0.00     0.078 C 
ATOM      2  C1' OXE d   1      -2.900  -0.122   2.741  0.00  0.00     0.078 C 
ATOM      3  C1  OXE d   1      -1.591   0.144   2.041  0.00  0.00    -0.078 A 
ATOM      4  C2  OXE d   1      -1.214   1.456   1.882  0.00  0.00    -0.078 A 
ATOM      5  C3  OXE d   1       0.010   1.755   1.293  0.00  0.00     0.003 A 
ATOM      6  C4  OXE d   1       0.790   0.741   0.723  0.00  0.00    -0.002 A 
ATOM      7  C5  OXE d   1       0.405  -0.599   0.839  0.00  0.00    -0.002 A 
ATOM      8  C6  OXE d   1      -0.758  -0.917   1.531  0.00  0.00     0.003 A 
ENDROOT
TORSDOF 0
ENDMDL
