MODEL 1
REMARK minimizedAffinity -0.364526212
REMARK minimizedRMSD -1
REMARK  0 active torsions:
REMARK  status: ('A' for Active; 'I' for Inactive)
ROOT
ATOM      1  C2' OXE d   1      -2.255   2.167   2.147  0.00  0.00     0.078 C 
ATOM      2  C1' OXE d   1      -2.523  -0.627   2.168  0.00  0.00     0.078 C 
ATOM      3  C1  OXE d   1      -1.196  -0.051   1.742  0.00  0.00    -0.078 A 
ATOM      4  C2  OXE d   1      -1.089   1.318   1.689  0.00  0.00    -0.078 A 
ATOM      5  C3  OXE d   1       0.130   1.901   1.355  0.00  0.00     0.003 A 
ATOM      6  C4  OXE d   1       1.201   1.109   0.923  0.00  0.00    -0.002 A 
ATOM      7  C5  OXE d   1       1.099  -0.287   0.931  0.00  0.00    -0.002 A 
ATOM      8  C6  OXE d   1      -0.076  -0.882   1.377  0.00  0.00     0.003 A 
ENDROOT
TORSDOF 0
ENDMDL
