MODEL 1
REMARK minimizedAffinity -2.70372248
REMARK minimizedRMSD -1
REMARK  0 active torsions:
REMARK  status: ('A' for Active; 'I' for Inactive)
ROOT
ATOM      1  C2' OXE d   1       1.147   2.812   0.673  0.00  0.00     0.078 C 
ATOM      2  C1' OXE d   1      -1.477   3.735   1.052  0.00  0.00     0.078 C 
ATOM      3  C1  OXE d   1      -1.169   2.311   1.443  0.00  0.00    -0.078 A 
ATOM      4  C2  OXE d   1       0.106   1.854   1.210  0.00  0.00    -0.078 A 
ATOM      5  C3  OXE d   1       0.458   0.565   1.602  0.00  0.00     0.003 A 
ATOM      6  C4  OXE d   1      -0.513  -0.318   2.089  0.00  0.00    -0.002 A 
ATOM      7  C5  OXE d   1      -1.826   0.115   2.296  0.00  0.00    -0.002 A 
ATOM      8  C6  OXE d   1      -2.160   1.436   2.019  0.00  0.00     0.003 A 
ENDROOT
TORSDOF 0
ENDMDL
