MODEL 1
REMARK minimizedAffinity 5.86290979
REMARK minimizedRMSD -1
REMARK  0 active torsions:
REMARK  status: ('A' for Active; 'I' for Inactive)
ROOT
ATOM      1  C2' OXE d   1      -3.507  -4.512  -0.743  0.00  0.00     0.078 C 
ATOM      2  C1' OXE d   1      -3.193  -2.087   0.635  0.00  0.00     0.078 C 
ATOM      3  C1  OXE d   1      -3.252  -2.037  -0.871  0.00  0.00    -0.078 A 
ATOM      4  C2  OXE d   1      -3.358  -3.233  -1.539  0.00  0.00    -0.078 A 
ATOM      5  C3  OXE d   1      -3.471  -3.240  -2.927  0.00  0.00     0.003 A 
ATOM      6  C4  OXE d   1      -3.323  -2.054  -3.656  0.00  0.00    -0.002 A 
ATOM      7  C5  OXE d   1      -3.174  -0.830  -2.997  0.00  0.00    -0.002 A 
ATOM      8  C6  OXE d   1      -3.179  -0.799  -1.607  0.00  0.00     0.003 A 
ENDROOT
TORSDOF 0
ENDMDL
