MODEL 1
REMARK minimizedAffinity 5.2739892
REMARK minimizedRMSD -1
REMARK  0 active torsions:
REMARK  status: ('A' for Active; 'I' for Inactive)
ROOT
ATOM      1  C2' OXE d   1      -1.358  -0.312   2.458  0.00  0.00     0.078 C 
ATOM      2  C1' OXE d   1      -2.943   1.844   3.305  0.00  0.00     0.078 C 
ATOM      3  C1  OXE d   1      -1.914   2.106   2.234  0.00  0.00    -0.078 A 
ATOM      4  C2  OXE d   1      -1.111   1.056   1.859  0.00  0.00    -0.078 A 
ATOM      5  C3  OXE d   1      -0.182   1.229   0.837  0.00  0.00     0.003 A 
ATOM      6  C4  OXE d   1       0.047   2.500   0.295  0.00  0.00    -0.002 A 
ATOM      7  C5  OXE d   1      -0.733   3.592   0.692  0.00  0.00    -0.002 A 
ATOM      8  C6  OXE d   1      -1.744   3.403   1.627  0.00  0.00     0.003 A 
ENDROOT
TORSDOF 0
ENDMDL
