MODEL 1
REMARK minimizedAffinity 1.18608594
REMARK minimizedRMSD -1
REMARK  0 active torsions:
REMARK  status: ('A' for Active; 'I' for Inactive)
ROOT
ATOM      1  C2' OXE d   1      -2.524   3.200   0.206  0.00  0.00     0.078 C 
ATOM      2  C1' OXE d   1      -2.781   1.232   2.192  0.00  0.00     0.078 C 
ATOM      3  C1  OXE d   1      -1.388   1.649   1.790  0.00  0.00    -0.078 A 
ATOM      4  C2  OXE d   1      -1.271   2.579   0.785  0.00  0.00    -0.078 A 
ATOM      5  C3  OXE d   1      -0.010   3.038   0.414  0.00  0.00     0.003 A 
ATOM      6  C4  OXE d   1       1.143   2.451   0.948  0.00  0.00    -0.002 A 
ATOM      7  C5  OXE d   1       1.047   1.474   1.945  0.00  0.00    -0.002 A 
ATOM      8  C6  OXE d   1      -0.208   1.094   2.406  0.00  0.00     0.003 A 
ENDROOT
TORSDOF 0
ENDMDL
