MODEL 1
REMARK minimizedAffinity 2.62966919
REMARK minimizedRMSD -1
REMARK  2 active torsions:
REMARK  status: ('A' for Active; 'I' for Inactive)
REMARK    1  A    between atoms: C2'_3  and  C1'_4 
REMARK    2  A    between atoms: C1'_4  and  C1_5 
ROOT
ATOM      1  C1  I4B d   1       1.601  -3.432   1.531  0.00  0.00    -0.075 A 
ATOM      2  C2  I4B d   1       1.394  -2.250   0.865  0.00  0.00     0.003 A 
ATOM      3  C3  I4B d   1       2.250  -1.872  -0.198  0.00  0.00     0.002 A 
ATOM      4  C4  I4B d   1       3.322  -2.676  -0.526  0.00  0.00    -0.004 A 
ATOM      5  C5  I4B d   1       3.516  -3.886   0.135  0.00  0.00     0.002 A 
ATOM      6  C6  I4B d   1       2.643  -4.273   1.162  0.00  0.00     0.003 A 
ENDROOT
BRANCH   1   7
ATOM      7  C1' I4B d   1       0.698  -3.785   2.671  0.00  0.00     0.060 C 
BRANCH   7   8
ATOM      8  C2' I4B d   1      -0.516  -2.880   2.602  0.00  0.00    -0.013 C 
ATOM      9  C4' I4B d   1      -1.706  -3.513   3.273  0.00  0.00     0.013 C 
ATOM     10  C3' I4B d   1      -0.158  -1.576   3.249  0.00  0.00     0.013 C 
ENDBRANCH   7   8
ENDBRANCH   1   7
TORSDOF 2
ENDMDL
