MODEL 1
REMARK minimizedAffinity 3.07096505
REMARK minimizedRMSD -1
REMARK  2 active torsions:
REMARK  status: ('A' for Active; 'I' for Inactive)
REMARK    1  A    between atoms: C2'_3  and  C1'_4 
REMARK    2  A    between atoms: C1'_4  and  C1_5 
ROOT
ATOM      1  C1  I4B d   1       1.228  -1.673   0.467  0.00  0.00    -0.075 A 
ATOM      2  C2  I4B d   1       2.337  -1.745  -0.337  0.00  0.00     0.003 A 
ATOM      3  C3  I4B d   1       3.219  -2.849  -0.238  0.00  0.00     0.002 A 
ATOM      4  C4  I4B d   1       2.982  -3.825   0.709  0.00  0.00    -0.004 A 
ATOM      5  C5  I4B d   1       1.845  -3.761   1.508  0.00  0.00     0.002 A 
ATOM      6  C6  I4B d   1       0.955  -2.685   1.379  0.00  0.00     0.003 A 
ENDROOT
BRANCH   1   7
ATOM      7  C1' I4B d   1       0.336  -0.477   0.359  0.00  0.00     0.060 C 
BRANCH   7   8
ATOM      8  C2' I4B d   1      -0.954  -0.789   1.089  0.00  0.00    -0.013 C 
ATOM      9  C4' I4B d   1      -0.903  -0.308   2.515  0.00  0.00     0.013 C 
ATOM     10  C3' I4B d   1      -2.080  -0.141   0.339  0.00  0.00     0.013 C 
ENDBRANCH   7   8
ENDBRANCH   1   7
TORSDOF 2
ENDMDL
