MODEL 1
REMARK minimizedAffinity 4.61712885
REMARK minimizedRMSD -1
REMARK  2 active torsions:
REMARK  status: ('A' for Active; 'I' for Inactive)
REMARK    1  A    between atoms: C2'_3  and  C1'_4 
REMARK    2  A    between atoms: C1'_4  and  C1_5 
ROOT
ATOM      1  C1  I4B d   1       0.357  -0.691   0.085  0.00  0.00    -0.075 A 
ATOM      2  C2  I4B d   1       0.427  -0.923   1.436  0.00  0.00     0.003 A 
ATOM      3  C3  I4B d   1      -0.740  -0.850   2.234  0.00  0.00     0.002 A 
ATOM      4  C4  I4B d   1      -1.940  -0.494   1.651  0.00  0.00    -0.004 A 
ATOM      5  C5  I4B d   1      -2.013  -0.282   0.278  0.00  0.00     0.002 A 
ATOM      6  C6  I4B d   1      -0.860  -0.393  -0.513  0.00  0.00     0.003 A 
ENDROOT
BRANCH   1   7
ATOM      7  C1' I4B d   1       1.616  -0.745  -0.722  0.00  0.00     0.060 C 
BRANCH   7   8
ATOM      8  C2' I4B d   1       2.373   0.548  -0.492  0.00  0.00    -0.013 C 
ATOM      9  C4' I4B d   1       3.803   0.280  -0.106  0.00  0.00     0.013 C 
ATOM     10  C3' I4B d   1       2.294   1.360  -1.750  0.00  0.00     0.013 C 
ENDBRANCH   7   8
ENDBRANCH   1   7
TORSDOF 2
ENDMDL
