MODEL 1
REMARK minimizedAffinity 3.13675618
REMARK minimizedRMSD -1
REMARK  2 active torsions:
REMARK  status: ('A' for Active; 'I' for Inactive)
REMARK    1  A    between atoms: C2'_3  and  C1'_4 
REMARK    2  A    between atoms: C1'_4  and  C1_5 
ROOT
ATOM      1  C1  I4B d   1       1.713  -3.930   1.851  0.00  0.00    -0.075 A 
ATOM      2  C2  I4B d   1       2.222  -3.234   0.784  0.00  0.00     0.003 A 
ATOM      3  C3  I4B d   1       3.050  -3.886  -0.163  0.00  0.00     0.002 A 
ATOM      4  C4  I4B d   1       3.381  -5.212   0.023  0.00  0.00    -0.004 A 
ATOM      5  C5  I4B d   1       2.845  -5.922   1.094  0.00  0.00     0.002 A 
ATOM      6  C6  I4B d   1       1.996  -5.281   2.007  0.00  0.00     0.003 A 
ENDROOT
BRANCH   1   7
ATOM      7  C1' I4B d   1       0.870  -3.202   2.850  0.00  0.00     0.060 C 
BRANCH   7   8
ATOM      8  C2' I4B d   1      -0.488  -2.957   2.224  0.00  0.00    -0.013 C 
ATOM      9  C4' I4B d   1      -1.560  -3.756   2.918  0.00  0.00     0.013 C 
ATOM     10  C3' I4B d   1      -0.774  -1.487   2.298  0.00  0.00     0.013 C 
ENDBRANCH   7   8
ENDBRANCH   1   7
TORSDOF 2
ENDMDL
