MODEL 1
REMARK minimizedAffinity 5.19800997
REMARK minimizedRMSD -1
REMARK  2 active torsions:
REMARK  status: ('A' for Active; 'I' for Inactive)
REMARK    1  A    between atoms: C2'_3  and  C1'_4 
REMARK    2  A    between atoms: C1'_4  and  C1_5 
ROOT
ATOM      1  C1  I4B d   1       2.841  -3.513  -0.219  0.00  0.00    -0.075 A 
ATOM      2  C2  I4B d   1       3.971  -4.270  -0.404  0.00  0.00     0.003 A 
ATOM      3  C3  I4B d   1       4.224  -5.387   0.428  0.00  0.00     0.002 A 
ATOM      4  C4  I4B d   1       3.353  -5.680   1.457  0.00  0.00    -0.004 A 
ATOM      5  C5  I4B d   1       2.196  -4.925   1.628  0.00  0.00     0.002 A 
ATOM      6  C6  I4B d   1       1.932  -3.842   0.777  0.00  0.00     0.003 A 
ENDROOT
BRANCH   1   7
ATOM      7  C1' I4B d   1       2.621  -2.320  -1.095  0.00  0.00     0.060 C 
BRANCH   7   8
ATOM      8  C2' I4B d   1       2.044  -1.212  -0.237  0.00  0.00    -0.013 C 
ATOM      9  C4' I4B d   1       2.919   0.014  -0.269  0.00  0.00     0.013 C 
ATOM     10  C3' I4B d   1       0.665  -0.907  -0.742  0.00  0.00     0.013 C 
ENDBRANCH   7   8
ENDBRANCH   1   7
TORSDOF 2
ENDMDL
