MODEL 1
REMARK minimizedAffinity -2.75774002
REMARK minimizedRMSD -1
REMARK  1 active torsions:
REMARK  status: ('A' for Active; 'I' for Inactive)
REMARK    1  A    between atoms: C1_2  and  C2_3 
ROOT
ATOM      1  C2  UNL d   1       0.488  -1.448   2.400  0.00  0.00    -0.081 A 
ATOM      2  C3  UNL d   1       1.378  -1.488   1.320  0.00  0.00     0.006 A 
ATOM      3  C4  UNL d   1       1.139  -0.723   0.176  0.00  0.00     0.002 A 
ATOM      4  C5  UNL d   1       0.011   0.101   0.096  0.00  0.00    -0.080 A 
ATOM      5  C6  UNL d   1      -0.242   0.950  -1.114  0.00  0.00     0.076 C 
ATOM      6  C7  UNL d   1      -0.888   0.128   1.168  0.00  0.00     0.002 A 
ATOM      7  C8  UNL d   1      -0.649  -0.638   2.312  0.00  0.00     0.006 A 
ENDROOT
BRANCH   1   8
ATOM      8  C1  UNL d   1       0.777  -2.222   3.661  0.00  0.00     0.054 C 
ATOM      9  C   UNL d   1      -0.362  -2.094   4.662  0.00  0.00     0.018 C 
ENDBRANCH   1   8
TORSDOF 1
ENDMDL
