MODEL 1
REMARK minimizedAffinity 4.20348549
REMARK minimizedRMSD -1
REMARK  1 active torsions:
REMARK  status: ('A' for Active; 'I' for Inactive)
REMARK    1  A    between atoms: C1_2  and  C2_3 
ROOT
ATOM      1  C2  UNL d   1       2.816  -3.793  -1.634  0.00  0.00    -0.081 A 
ATOM      2  C3  UNL d   1       3.189  -2.571  -1.061  0.00  0.00     0.006 A 
ATOM      3  C4  UNL d   1       3.768  -1.569  -1.843  0.00  0.00     0.002 A 
ATOM      4  C5  UNL d   1       3.976  -1.769  -3.212  0.00  0.00    -0.080 A 
ATOM      5  C6  UNL d   1       4.569  -0.690  -4.069  0.00  0.00     0.076 C 
ATOM      6  C7  UNL d   1       3.619  -2.996  -3.781  0.00  0.00     0.002 A 
ATOM      7  C8  UNL d   1       3.041  -3.998  -3.000  0.00  0.00     0.006 A 
ENDROOT
BRANCH   1   8
ATOM      8  C1  UNL d   1       2.132  -4.851  -0.806  0.00  0.00     0.054 C 
ATOM      9  C   UNL d   1       0.618  -4.717  -0.878  0.00  0.00     0.018 C 
ENDBRANCH   1   8
TORSDOF 1
ENDMDL
