MODEL 1
REMARK minimizedAffinity 18.9592781
REMARK minimizedRMSD -1
REMARK  1 active torsions:
REMARK  status: ('A' for Active; 'I' for Inactive)
REMARK    1  A    between atoms: C1_2  and  C2_3 
ROOT
ATOM      1  C2  UNL d   1       4.205  -4.824  -2.417  0.00  0.00    -0.081 A 
ATOM      2  C3  UNL d   1       3.613  -3.593  -2.109  0.00  0.00     0.006 A 
ATOM      3  C4  UNL d   1       3.684  -2.528  -3.010  0.00  0.00     0.002 A 
ATOM      4  C5  UNL d   1       4.340  -2.678  -4.236  0.00  0.00    -0.080 A 
ATOM      5  C6  UNL d   1       4.397  -1.552  -5.226  0.00  0.00     0.076 C 
ATOM      6  C7  UNL d   1       4.947  -3.902  -4.537  0.00  0.00     0.002 A 
ATOM      7  C8  UNL d   1       4.877  -4.967  -3.636  0.00  0.00     0.006 A 
ENDROOT
BRANCH   1   8
ATOM      8  C1  UNL d   1       4.075  -5.994  -1.475  0.00  0.00     0.054 C 
ATOM      9  C   UNL d   1       5.193  -6.000  -0.442  0.00  0.00     0.018 C 
ENDBRANCH   1   8
TORSDOF 1
ENDMDL
