MODEL 1
REMARK minimizedAffinity 3.3075943
REMARK minimizedRMSD -1
REMARK  1 active torsions:
REMARK  status: ('A' for Active; 'I' for Inactive)
REMARK    1  A    between atoms: C1_2  and  C2_3 
ROOT
ATOM      1  C2  UNL d   1      -1.106   3.504  -1.675  0.00  0.00    -0.081 A 
ATOM      2  C3  UNL d   1      -2.274   3.624  -2.440  0.00  0.00     0.006 A 
ATOM      3  C4  UNL d   1      -3.100   2.517  -2.648  0.00  0.00     0.002 A 
ATOM      4  C5  UNL d   1      -2.777   1.275  -2.090  0.00  0.00    -0.080 A 
ATOM      5  C6  UNL d   1      -3.671   0.086  -2.281  0.00  0.00     0.076 C 
ATOM      6  C7  UNL d   1      -1.602   1.152  -1.341  0.00  0.00     0.002 A 
ATOM      7  C8  UNL d   1      -0.775   2.258  -1.133  0.00  0.00     0.006 A 
ENDROOT
BRANCH   1   8
ATOM      8  C1  UNL d   1      -0.247   4.711  -1.395  0.00  0.00     0.054 C 
ATOM      9  C   UNL d   1      -1.048   6.000  -1.514  0.00  0.00     0.018 C 
ENDBRANCH   1   8
TORSDOF 1
ENDMDL
