MODEL 1
REMARK minimizedAffinity 5.93110418
REMARK minimizedRMSD -1
REMARK  1 active torsions:
REMARK  status: ('A' for Active; 'I' for Inactive)
REMARK    1  A    between atoms: C1_2  and  C2_3 
ROOT
ATOM      1  C2  UNL d   1       4.105  -4.804  -2.939  0.00  0.00    -0.081 A 
ATOM      2  C3  UNL d   1       3.752  -4.979  -1.595  0.00  0.00     0.006 A 
ATOM      3  C4  UNL d   1       3.405  -3.880  -0.806  0.00  0.00     0.002 A 
ATOM      4  C5  UNL d   1       3.397  -2.590  -1.349  0.00  0.00    -0.080 A 
ATOM      5  C6  UNL d   1       2.997  -1.406  -0.520  0.00  0.00     0.076 C 
ATOM      6  C7  UNL d   1       3.766  -2.414  -2.686  0.00  0.00     0.002 A 
ATOM      7  C8  UNL d   1       4.114  -3.512  -3.476  0.00  0.00     0.006 A 
ENDROOT
BRANCH   1   8
ATOM      8  C1  UNL d   1       4.417  -5.994  -3.810  0.00  0.00     0.054 C 
ATOM      9  C   UNL d   1       5.874  -5.991  -4.249  0.00  0.00     0.018 C 
ENDBRANCH   1   8
TORSDOF 1
ENDMDL
