MODEL 1
REMARK minimizedAffinity 0.332518458
REMARK minimizedRMSD -1
REMARK  1 active torsions:
REMARK  status: ('A' for Active; 'I' for Inactive)
REMARK    1  A    between atoms: C1_2  and  C2_3 
ROOT
ATOM      1  C2  UNL d   1       4.034  -4.734  -3.274  0.00  0.00    -0.081 A 
ATOM      2  C3  UNL d   1       3.490  -3.456  -3.451  0.00  0.00     0.006 A 
ATOM      3  C4  UNL d   1       3.641  -2.480  -2.463  0.00  0.00     0.002 A 
ATOM      4  C5  UNL d   1       4.344  -2.762  -1.287  0.00  0.00    -0.080 A 
ATOM      5  C6  UNL d   1       4.540  -1.714  -0.233  0.00  0.00     0.076 C 
ATOM      6  C7  UNL d   1       4.873  -4.044  -1.103  0.00  0.00     0.002 A 
ATOM      7  C8  UNL d   1       4.722  -5.021  -2.090  0.00  0.00     0.006 A 
ENDROOT
BRANCH   1   8
ATOM      8  C1  UNL d   1       3.929  -5.770  -4.365  0.00  0.00     0.054 C 
ATOM      9  C   UNL d   1       5.222  -5.867  -5.161  0.00  0.00     0.018 C 
ENDBRANCH   1   8
TORSDOF 1
ENDMDL
