MODEL 1
REMARK minimizedAffinity 5.16742468
REMARK minimizedRMSD -1
REMARK  0 active torsions:
REMARK  status: ('A' for Active; 'I' for Inactive)
ROOT
ATOM      1  C   UNL d   1       0.024   2.609  -1.200  0.00  0.00     0.020 A 
ATOM      2  C1  UNL d   1      -0.765   3.705  -1.545  0.00  0.00     0.020 A 
ATOM      3  C2  UNL d   1      -1.343   4.492  -0.547  0.00  0.00     0.034 A 
ATOM      4  C3  UNL d   1      -1.133   4.183   0.802  0.00  0.00     0.017 A 
ATOM      5  C4  UNL d   1      -0.341   3.082   1.148  0.00  0.00     0.017 A 
ATOM      6  C5  UNL d   1       0.235   2.298   0.144  0.00  0.00     0.034 A 
ATOM      7 Cl   UNL d   1      -0.037   2.638   2.790  0.00  0.00    -0.070 Cl
ATOM      8 Cl1  UNL d   1      -1.878   5.199   1.985  0.00  0.00    -0.070 Cl
ENDROOT
TORSDOF 0
ENDMDL
