MODEL 1
REMARK minimizedAffinity 9.91756535
REMARK minimizedRMSD -1
REMARK  0 active torsions:
REMARK  status: ('A' for Active; 'I' for Inactive)
ROOT
ATOM      1  C   UNL d   1      -0.004   3.000   0.109  0.00  0.00     0.020 A 
ATOM      2  C1  UNL d   1       1.130   3.803  -0.002  0.00  0.00     0.020 A 
ATOM      3  C2  UNL d   1       1.234   4.723  -1.047  0.00  0.00     0.034 A 
ATOM      4  C3  UNL d   1       0.203   4.842  -1.986  0.00  0.00     0.017 A 
ATOM      5  C4  UNL d   1      -0.935   4.035  -1.874  0.00  0.00     0.017 A 
ATOM      6  C5  UNL d   1      -1.035   3.116  -0.824  0.00  0.00     0.034 A 
ATOM      7 Cl   UNL d   1      -2.249   4.124  -2.993  0.00  0.00    -0.070 Cl
ATOM      8 Cl1  UNL d   1       0.399   6.000  -3.253  0.00  0.00    -0.070 Cl
ENDROOT
TORSDOF 0
ENDMDL
