MODEL 1
REMARK minimizedAffinity -1.07042706
REMARK minimizedRMSD -1
REMARK  0 active torsions:
REMARK  status: ('A' for Active; 'I' for Inactive)
ROOT
ATOM      1  C   UNL d   1      -5.973   1.754  -5.396  0.00  0.00     0.020 A 
ATOM      2  C1  UNL d   1      -5.974   3.012  -5.997  0.00  0.00     0.020 A 
ATOM      3  C2  UNL d   1      -5.982   4.164  -5.208  0.00  0.00     0.034 A 
ATOM      4  C3  UNL d   1      -5.990   4.060  -3.812  0.00  0.00     0.017 A 
ATOM      5  C4  UNL d   1      -5.990   2.797  -3.209  0.00  0.00     0.017 A 
ATOM      6  C5  UNL d   1      -5.981   1.647  -4.004  0.00  0.00     0.034 A 
ATOM      7 Cl   UNL d   1      -6.000   2.589  -1.493  0.00  0.00    -0.070 Cl
ATOM      8 Cl1  UNL d   1      -6.000   5.526  -2.897  0.00  0.00    -0.070 Cl
ENDROOT
TORSDOF 0
ENDMDL
