MODEL 1
REMARK minimizedAffinity 2.81493688
REMARK minimizedRMSD -1
REMARK  0 active torsions:
REMARK  status: ('A' for Active; 'I' for Inactive)
ROOT
ATOM      1  C   UNL d   1       0.706  -0.944  -0.491  0.00  0.00     0.020 A 
ATOM      2  C1  UNL d   1       1.654  -1.727   0.166  0.00  0.00     0.020 A 
ATOM      3  C2  UNL d   1       1.683  -3.108  -0.040  0.00  0.00     0.034 A 
ATOM      4  C3  UNL d   1       0.762  -3.710  -0.905  0.00  0.00     0.017 A 
ATOM      5  C4  UNL d   1      -0.189  -2.923  -1.564  0.00  0.00     0.017 A 
ATOM      6  C5  UNL d   1      -0.214  -1.541  -1.354  0.00  0.00     0.034 A 
ATOM      7 Cl   UNL d   1      -1.358  -3.594  -2.646  0.00  0.00    -0.070 Cl
ATOM      8 Cl1  UNL d   1       0.856  -5.423  -1.113  0.00  0.00    -0.070 Cl
ENDROOT
TORSDOF 0
ENDMDL
