MODEL 1
REMARK minimizedAffinity 22.7041206
REMARK minimizedRMSD -1
REMARK  0 active torsions:
REMARK  status: ('A' for Active; 'I' for Inactive)
ROOT
ATOM      1  C   UNL d   1       4.558  -4.462  -4.755  0.00  0.00     0.020 A 
ATOM      2  C1  UNL d   1       4.156  -5.711  -4.283  0.00  0.00     0.020 A 
ATOM      3  C2  UNL d   1       4.231  -6.000  -2.919  0.00  0.00     0.034 A 
ATOM      4  C3  UNL d   1       4.709  -5.038  -2.021  0.00  0.00     0.017 A 
ATOM      5  C4  UNL d   1       5.112  -3.784  -2.496  0.00  0.00     0.017 A 
ATOM      6  C5  UNL d   1       5.035  -3.501  -3.863  0.00  0.00     0.034 A 
ATOM      7 Cl   UNL d   1       5.712  -2.546  -1.449  0.00  0.00    -0.070 Cl
ATOM      8 Cl1  UNL d   1       4.773  -5.462  -0.348  0.00  0.00    -0.070 Cl
ENDROOT
TORSDOF 0
ENDMDL
