MODEL 1
REMARK minimizedAffinity 14.0551186
REMARK minimizedRMSD -1
REMARK  0 active torsions:
REMARK  status: ('A' for Active; 'I' for Inactive)
ROOT
ATOM      1  C   UNL d   1       3.712  -5.633  -5.235  0.00  0.00     0.020 A 
ATOM      2  C1  UNL d   1       4.896  -4.902  -5.136  0.00  0.00     0.020 A 
ATOM      3  C2  UNL d   1       5.364  -4.498  -3.883  0.00  0.00     0.034 A 
ATOM      4  C3  UNL d   1       4.648  -4.825  -2.726  0.00  0.00     0.017 A 
ATOM      5  C4  UNL d   1       3.461  -5.559  -2.826  0.00  0.00     0.017 A 
ATOM      6  C5  UNL d   1       2.997  -5.960  -4.083  0.00  0.00     0.034 A 
ATOM      7 Cl   UNL d   1       2.523  -6.000  -1.443  0.00  0.00    -0.070 Cl
ATOM      8 Cl1  UNL d   1       5.286  -4.294  -1.210  0.00  0.00    -0.070 Cl
ENDROOT
TORSDOF 0
ENDMDL
