MODEL 1
REMARK minimizedAffinity 10.4206419
REMARK minimizedRMSD -1
REMARK  0 active torsions:
REMARK  status: ('A' for Active; 'I' for Inactive)
ROOT
ATOM      1  C   UNL d   1      -3.503  -5.772  -4.911  0.00  0.00     0.020 A 
ATOM      2  C1  UNL d   1      -3.655  -4.915  -6.000  0.00  0.00     0.020 A 
ATOM      3  C2  UNL d   1      -3.027  -3.668  -5.999  0.00  0.00     0.034 A 
ATOM      4  C3  UNL d   1      -2.244  -3.274  -4.908  0.00  0.00     0.017 A 
ATOM      5  C4  UNL d   1      -2.092  -4.135  -3.815  0.00  0.00     0.017 A 
ATOM      6  C5  UNL d   1      -2.723  -5.383  -3.821  0.00  0.00     0.034 A 
ATOM      7 Cl   UNL d   1      -1.142  -3.720  -2.432  0.00  0.00    -0.070 Cl
ATOM      8 Cl1  UNL d   1      -1.497  -1.718  -4.975  0.00  0.00    -0.070 Cl
ENDROOT
TORSDOF 0
ENDMDL
