MODEL 1
REMARK minimizedAffinity 5.71849585
REMARK minimizedRMSD -1
REMARK  0 active torsions:
REMARK  status: ('A' for Active; 'I' for Inactive)
ROOT
ATOM      1  C   UNL d   1      -5.640   5.652  -2.032  0.00  0.00     0.020 A 
ATOM      2  C1  UNL d   1      -5.019   4.455  -1.679  0.00  0.00     0.020 A 
ATOM      3  C2  UNL d   1      -4.685   3.524  -2.665  0.00  0.00     0.034 A 
ATOM      4  C3  UNL d   1      -4.972   3.790  -4.009  0.00  0.00     0.017 A 
ATOM      5  C4  UNL d   1      -5.595   4.992  -4.362  0.00  0.00     0.017 A 
ATOM      6  C5  UNL d   1      -5.927   5.920  -3.371  0.00  0.00     0.034 A 
ATOM      7 Cl   UNL d   1      -5.980   5.390  -6.000  0.00  0.00    -0.070 Cl
ATOM      8 Cl1  UNL d   1      -4.530   2.595  -5.176  0.00  0.00    -0.070 Cl
ENDROOT
TORSDOF 0
ENDMDL
