MODEL 1
REMARK minimizedAffinity 6.84846449
REMARK minimizedRMSD -1
REMARK  0 active torsions:
REMARK  status: ('A' for Active; 'I' for Inactive)
ROOT
ATOM      1  C   UNL d   1      -5.956  -0.559  -4.342  0.00  0.00     0.020 A 
ATOM      2  C1  UNL d   1      -5.956  -0.098  -5.658  0.00  0.00     0.020 A 
ATOM      3  C2  UNL d   1      -5.968   1.274  -5.917  0.00  0.00     0.034 A 
ATOM      4  C3  UNL d   1      -5.982   2.190  -4.859  0.00  0.00     0.017 A 
ATOM      5  C4  UNL d   1      -5.983   1.727  -3.538  0.00  0.00     0.017 A 
ATOM      6  C5  UNL d   1      -5.970   0.352  -3.284  0.00  0.00     0.034 A 
ATOM      7 Cl   UNL d   1      -5.999   2.796  -2.181  0.00  0.00    -0.070 Cl
ATOM      8 Cl1  UNL d   1      -5.997   3.873  -5.253  0.00  0.00    -0.070 Cl
ENDROOT
TORSDOF 0
ENDMDL
