MODEL 1
REMARK minimizedAffinity -3.12667823
REMARK minimizedRMSD -1
REMARK  2 active torsions:
REMARK  status: ('A' for Active; 'I' for Inactive)
REMARK    1  A    between atoms: C1_2  and  C2_3 
REMARK    2  A    between atoms: C2_3  and  C3_4 
ROOT
ATOM      1  C3  UNL d   1      -0.068  -0.317  -0.027  0.00  0.00    -0.075 A 
ATOM      2  C4  UNL d   1       0.872  -0.369   1.012  0.00  0.00     0.002 A 
ATOM      3  C5  UNL d   1       0.517   0.007   2.308  0.00  0.00     0.002 A 
ATOM      4  C6  UNL d   1      -0.776   0.450   2.578  0.00  0.00    -0.004 A 
ATOM      5  C7  UNL d   1      -1.713   0.522   1.550  0.00  0.00     0.002 A 
ATOM      6  C8  UNL d   1      -1.362   0.142   0.254  0.00  0.00     0.002 A 
ENDROOT
BRANCH   1   7
ATOM      7  C2  UNL d   1       0.301  -0.751  -1.425  0.00  0.00     0.056 C 
BRANCH   7   8
ATOM      8  C1  UNL d   1       0.760   0.395  -2.333  0.00  0.00     0.007 C 
ATOM      9  C   UNL d   1       0.673   0.058  -3.816  0.00  0.00     0.009 C 
ENDBRANCH   7   8
ENDBRANCH   1   7
TORSDOF 2
ENDMDL
