MODEL 1
REMARK minimizedAffinity -1.51362991
REMARK minimizedRMSD -1
REMARK  2 active torsions:
REMARK  status: ('A' for Active; 'I' for Inactive)
REMARK    1  A    between atoms: C1_2  and  C2_3 
REMARK    2  A    between atoms: C2_3  and  C3_4 
ROOT
ATOM      1  C3  UNL d   1       0.488   0.075  -1.764  0.00  0.00    -0.075 A 
ATOM      2  C4  UNL d   1      -0.212  -1.109  -1.487  0.00  0.00     0.002 A 
ATOM      3  C5  UNL d   1      -1.088  -1.177  -0.403  0.00  0.00     0.002 A 
ATOM      4  C6  UNL d   1      -1.267  -0.068   0.422  0.00  0.00    -0.004 A 
ATOM      5  C7  UNL d   1      -0.564   1.107   0.166  0.00  0.00     0.002 A 
ATOM      6  C8  UNL d   1       0.309   1.179  -0.921  0.00  0.00     0.002 A 
ENDROOT
BRANCH   1   7
ATOM      7  C2  UNL d   1       1.415   0.164  -2.953  0.00  0.00     0.056 C 
BRANCH   7   8
ATOM      8  C1  UNL d   1       0.922   1.104  -4.059  0.00  0.00     0.007 C 
ATOM      9  C   UNL d   1      -0.474   0.761  -4.560  0.00  0.00     0.009 C 
ENDBRANCH   7   8
ENDBRANCH   1   7
TORSDOF 2
ENDMDL
