MODEL 1
REMARK minimizedAffinity 2.32799649
REMARK minimizedRMSD -1
REMARK  2 active torsions:
REMARK  status: ('A' for Active; 'I' for Inactive)
REMARK    1  A    between atoms: C1_2  and  C2_3 
REMARK    2  A    between atoms: C2_3  and  C3_4 
ROOT
ATOM      1  C3  UNL d   1       4.893   1.086   3.790  0.00  0.00    -0.075 A 
ATOM      2  C4  UNL d   1       5.406   0.361   4.876  0.00  0.00     0.002 A 
ATOM      3  C5  UNL d   1       5.952   1.025   5.975  0.00  0.00     0.002 A 
ATOM      4  C6  UNL d   1       6.000   2.417   5.999  0.00  0.00    -0.004 A 
ATOM      5  C7  UNL d   1       5.508   3.146   4.919  0.00  0.00     0.002 A 
ATOM      6  C8  UNL d   1       4.958   2.485   3.819  0.00  0.00     0.002 A 
ENDROOT
BRANCH   1   7
ATOM      7  C2  UNL d   1       4.275   0.375   2.610  0.00  0.00     0.056 C 
BRANCH   7   8
ATOM      8  C1  UNL d   1       4.296  -1.153   2.722  0.00  0.00     0.007 C 
ATOM      9  C   UNL d   1       4.534  -1.850   1.388  0.00  0.00     0.009 C 
ENDBRANCH   7   8
ENDBRANCH   1   7
TORSDOF 2
ENDMDL
