MODEL 1
REMARK minimizedAffinity 1.27103651
REMARK minimizedRMSD -1
REMARK  1 active torsions:
REMARK  status: ('A' for Active; 'I' for Inactive)
REMARK    1  A    between atoms: C1_2  and  C2_3 
ROOT
ATOM      1  C2  UNL d   1       1.235   1.701   1.134  0.00  0.00    -0.076 A 
ATOM      2  C3  UNL d   1       0.382   2.790   1.384  0.00  0.00     0.004 A 
ATOM      3  C4  UNL d   1      -0.982   2.710   1.109  0.00  0.00    -0.003 A 
ATOM      4  C5  UNL d   1      -1.515   1.540   0.580  0.00  0.00     0.000 A 
ATOM      5  C6  UNL d   1      -0.686   0.444   0.342  0.00  0.00     0.000 A 
ATOM      6  C7  UNL d   1       0.688   0.502   0.629  0.00  0.00    -0.073 A 
ATOM      7  C8  UNL d   1       1.536  -0.708   0.347  0.00  0.00     0.078 C 
ENDROOT
BRANCH   1   8
ATOM      8  C1  UNL d   1       2.711   1.855   1.427  0.00  0.00     0.053 C 
ATOM      9  C   UNL d   1       2.992   2.953   2.441  0.00  0.00     0.018 C 
ENDBRANCH   1   8
TORSDOF 1
ENDMDL
