MODEL 1
REMARK minimizedAffinity -1.14476407
REMARK minimizedRMSD -1
REMARK  1 active torsions:
REMARK  status: ('A' for Active; 'I' for Inactive)
REMARK    1  A    between atoms: C1_2  and  C2_3 
ROOT
ATOM      1  C2  UNL d   1       0.491   0.009  -0.132  0.00  0.00    -0.076 A 
ATOM      2  C3  UNL d   1       0.192  -0.642  -1.342  0.00  0.00     0.004 A 
ATOM      3  C4  UNL d   1       1.154  -0.777  -2.341  0.00  0.00    -0.003 A 
ATOM      4  C5  UNL d   1       2.431  -0.263  -2.147  0.00  0.00     0.000 A 
ATOM      5  C6  UNL d   1       2.751   0.371  -0.947  0.00  0.00     0.000 A 
ATOM      6  C7  UNL d   1       1.797   0.501   0.077  0.00  0.00    -0.073 A 
ATOM      7  C8  UNL d   1       2.194   1.199   1.349  0.00  0.00     0.078 C 
ENDROOT
BRANCH   1   8
ATOM      8  C1  UNL d   1      -0.601   0.149   0.904  0.00  0.00     0.053 C 
ATOM      9  C   UNL d   1      -1.643   1.186   0.516  0.00  0.00     0.018 C 
ENDBRANCH   1   8
TORSDOF 1
ENDMDL
