MODEL 1
REMARK minimizedAffinity 4.27231359
REMARK minimizedRMSD -1
REMARK  1 active torsions:
REMARK  status: ('A' for Active; 'I' for Inactive)
REMARK    1  A    between atoms: C1_2  and  C2_3 
ROOT
ATOM      1  C2  UNL d   1      -0.056   1.156   0.957  0.00  0.00    -0.076 A 
ATOM      2  C3  UNL d   1      -0.595   2.454   0.974  0.00  0.00     0.004 A 
ATOM      3  C4  UNL d   1      -1.972   2.658   1.056  0.00  0.00    -0.003 A 
ATOM      4  C5  UNL d   1      -2.831   1.566   1.124  0.00  0.00     0.000 A 
ATOM      5  C6  UNL d   1      -2.312   0.272   1.126  0.00  0.00     0.000 A 
ATOM      6  C7  UNL d   1      -0.926   0.050   1.060  0.00  0.00    -0.073 A 
ATOM      7  C8  UNL d   1      -0.421  -1.367   1.061  0.00  0.00     0.078 C 
ENDROOT
BRANCH   1   8
ATOM      8  C1  UNL d   1       1.443   0.997   0.839  0.00  0.00     0.053 C 
ATOM      9  C   UNL d   1       2.205   2.029   1.655  0.00  0.00     0.018 C 
ENDBRANCH   1   8
TORSDOF 1
ENDMDL
