MODEL 1
REMARK minimizedAffinity 1.53555763
REMARK minimizedRMSD -1
REMARK  1 active torsions:
REMARK  status: ('A' for Active; 'I' for Inactive)
REMARK    1  A    between atoms: C1_2  and  C2_3 
ROOT
ATOM      1  C2  UNL d   1      -0.128   1.237   0.839  0.00  0.00    -0.076 A 
ATOM      2  C3  UNL d   1       1.149   0.686   0.631  0.00  0.00     0.004 A 
ATOM      3  C4  UNL d   1       2.296   1.355   1.052  0.00  0.00    -0.003 A 
ATOM      4  C5  UNL d   1       2.186   2.586   1.689  0.00  0.00     0.000 A 
ATOM      5  C6  UNL d   1       0.927   3.140   1.920  0.00  0.00     0.000 A 
ATOM      6  C7  UNL d   1      -0.241   2.470   1.516  0.00  0.00    -0.073 A 
ATOM      7  C8  UNL d   1      -1.572   3.116   1.785  0.00  0.00     0.078 C 
ENDROOT
BRANCH   1   8
ATOM      8  C1  UNL d   1      -1.335   0.478   0.336  0.00  0.00     0.053 C 
ATOM      9  C   UNL d   1      -1.728  -0.667   1.256  0.00  0.00     0.018 C 
ENDBRANCH   1   8
TORSDOF 1
ENDMDL
