MODEL 1
REMARK minimizedAffinity 2.65549588
REMARK minimizedRMSD -1
REMARK  1 active torsions:
REMARK  status: ('A' for Active; 'I' for Inactive)
REMARK    1  A    between atoms: C1_2  and  C2_3 
ROOT
ATOM      1  C2  UNL d   1      -0.392   2.068   1.124  0.00  0.00    -0.076 A 
ATOM      2  C3  UNL d   1      -1.770   2.263   1.324  0.00  0.00     0.004 A 
ATOM      3  C4  UNL d   1      -2.671   1.209   1.187  0.00  0.00    -0.003 A 
ATOM      4  C5  UNL d   1      -2.209  -0.058   0.848  0.00  0.00     0.000 A 
ATOM      5  C6  UNL d   1      -0.844  -0.274   0.664  0.00  0.00     0.000 A 
ATOM      6  C7  UNL d   1       0.080   0.774   0.814  0.00  0.00    -0.073 A 
ATOM      7  C8  UNL d   1       1.540   0.486   0.597  0.00  0.00     0.078 C 
ENDROOT
BRANCH   1   8
ATOM      8  C1  UNL d   1       0.535   3.254   1.260  0.00  0.00     0.053 C 
ATOM      9  C   UNL d   1       1.639   3.017   2.279  0.00  0.00     0.018 C 
ENDBRANCH   1   8
TORSDOF 1
ENDMDL
