MODEL 1
REMARK minimizedAffinity 1.92854333
REMARK minimizedRMSD -1
REMARK  1 active torsions:
REMARK  status: ('A' for Active; 'I' for Inactive)
REMARK    1  A    between atoms: C1_2  and  C2_3 
ROOT
ATOM      1  C2  UNL d   1       0.317   0.385   0.779  0.00  0.00    -0.076 A 
ATOM      2  C3  UNL d   1       0.108   1.773   0.857  0.00  0.00     0.004 A 
ATOM      3  C4  UNL d   1      -1.164   2.296   1.082  0.00  0.00    -0.003 A 
ATOM      4  C5  UNL d   1      -2.249   1.439   1.235  0.00  0.00     0.000 A 
ATOM      5  C6  UNL d   1      -2.057   0.059   1.178  0.00  0.00     0.000 A 
ATOM      6  C7  UNL d   1      -0.779  -0.485   0.968  0.00  0.00    -0.073 A 
ATOM      7  C8  UNL d   1      -0.631  -1.981   0.910  0.00  0.00     0.078 C 
ENDROOT
BRANCH   1   8
ATOM      8  C1  UNL d   1       1.714  -0.123   0.506  0.00  0.00     0.053 C 
ATOM      9  C   UNL d   1       2.774   0.947   0.714  0.00  0.00     0.018 C 
ENDBRANCH   1   8
TORSDOF 1
ENDMDL
