MODEL 1
REMARK minimizedAffinity 2.68968129
REMARK minimizedRMSD -1
REMARK  1 active torsions:
REMARK  status: ('A' for Active; 'I' for Inactive)
REMARK    1  A    between atoms: C1_2  and  C2_3 
ROOT
ATOM      1  C2  UNL d   1      -0.103   2.528   2.047  0.00  0.00    -0.076 A 
ATOM      2  C3  UNL d   1       1.171   2.909   2.503  0.00  0.00     0.004 A 
ATOM      3  C4  UNL d   1       2.326   2.391   1.919  0.00  0.00    -0.003 A 
ATOM      4  C5  UNL d   1       2.225   1.484   0.869  0.00  0.00     0.000 A 
ATOM      5  C6  UNL d   1       0.970   1.109   0.393  0.00  0.00     0.000 A 
ATOM      6  C7  UNL d   1      -0.204   1.634   0.960  0.00  0.00    -0.073 A 
ATOM      7  C8  UNL d   1      -1.532   1.190   0.411  0.00  0.00     0.078 C 
ENDROOT
BRANCH   1   8
ATOM      8  C1  UNL d   1      -1.320   3.102   2.737  0.00  0.00     0.053 C 
ATOM      9  C   UNL d   1      -1.169   3.138   4.250  0.00  0.00     0.018 C 
ENDBRANCH   1   8
TORSDOF 1
ENDMDL
