MODEL 1
REMARK minimizedAffinity 5.7719264
REMARK minimizedRMSD -1
REMARK  1 active torsions:
REMARK  status: ('A' for Active; 'I' for Inactive)
REMARK    1  A    between atoms: C1_2  and  C2_3 
ROOT
ATOM      1  C2  UNL d   1      -0.019   0.865   0.672  0.00  0.00    -0.076 A 
ATOM      2  C3  UNL d   1      -0.272   2.243   0.563  0.00  0.00     0.004 A 
ATOM      3  C4  UNL d   1      -1.574   2.739   0.598  0.00  0.00    -0.003 A 
ATOM      4  C5  UNL d   1      -2.645   1.864   0.743  0.00  0.00     0.000 A 
ATOM      5  C6  UNL d   1      -2.412   0.495   0.870  0.00  0.00     0.000 A 
ATOM      6  C7  UNL d   1      -1.104  -0.019   0.854  0.00  0.00    -0.073 A 
ATOM      7  C8  UNL d   1      -0.912  -1.505   0.989  0.00  0.00     0.078 C 
ENDROOT
BRANCH   1   8
ATOM      8  C1  UNL d   1       1.412   0.383   0.601  0.00  0.00     0.053 C 
ATOM      9  C   UNL d   1       1.917   0.266  -0.829  0.00  0.00     0.018 C 
ENDBRANCH   1   8
TORSDOF 1
ENDMDL
