MODEL 1
REMARK minimizedAffinity 9.97109127
REMARK minimizedRMSD -1
REMARK  1 active torsions:
REMARK  status: ('A' for Active; 'I' for Inactive)
REMARK    1  A    between atoms: C1_2  and  C2_3 
ROOT
ATOM      1  C2  UNL d   1      -0.358   0.993   0.727  0.00  0.00    -0.076 A 
ATOM      2  C3  UNL d   1      -0.392   2.398   0.761  0.00  0.00     0.004 A 
ATOM      3  C4  UNL d   1      -1.598   3.083   0.902  0.00  0.00    -0.003 A 
ATOM      4  C5  UNL d   1      -2.789   2.374   1.011  0.00  0.00     0.000 A 
ATOM      5  C6  UNL d   1      -2.772   0.979   0.997  0.00  0.00     0.000 A 
ATOM      6  C7  UNL d   1      -1.563   0.273   0.873  0.00  0.00    -0.073 A 
ATOM      7  C8  UNL d   1      -1.604  -1.230   0.857  0.00  0.00     0.078 C 
ENDROOT
BRANCH   1   8
ATOM      8  C1  UNL d   1       0.976   0.305   0.546  0.00  0.00     0.053 C 
ATOM      9  C   UNL d   1       1.669   0.709  -0.746  0.00  0.00     0.018 C 
ENDBRANCH   1   8
TORSDOF 1
ENDMDL
