MODEL 1
REMARK minimizedAffinity 17.173275
REMARK minimizedRMSD -1
REMARK  1 active torsions:
REMARK  status: ('A' for Active; 'I' for Inactive)
REMARK    1  A    between atoms: C1_2  and  C2_3 
ROOT
ATOM      1  C2  UNL d   1       3.021  -1.089  -1.748  0.00  0.00    -0.076 A 
ATOM      2  C3  UNL d   1       3.982  -1.905  -1.125  0.00  0.00     0.004 A 
ATOM      3  C4  UNL d   1       5.283  -1.986  -1.618  0.00  0.00    -0.003 A 
ATOM      4  C5  UNL d   1       5.645  -1.252  -2.743  0.00  0.00     0.000 A 
ATOM      5  C6  UNL d   1       4.710  -0.424  -3.363  0.00  0.00     0.000 A 
ATOM      6  C7  UNL d   1       3.398  -0.318  -2.868  0.00  0.00    -0.073 A 
ATOM      7  C8  UNL d   1       2.429   0.585  -3.580  0.00  0.00     0.078 C 
ENDROOT
BRANCH   1   8
ATOM      8  C1  UNL d   1       1.619  -1.062  -1.184  0.00  0.00     0.053 C 
ATOM      9  C   UNL d   1       1.532  -0.295   0.127  0.00  0.00     0.018 C 
ENDBRANCH   1   8
TORSDOF 1
ENDMDL
