MODEL 1
REMARK minimizedAffinity 13.9928036
REMARK minimizedRMSD -1
REMARK  1 active torsions:
REMARK  status: ('A' for Active; 'I' for Inactive)
REMARK    1  A    between atoms: C1_2  and  C2_3 
ROOT
ATOM      1  C2  UNL d   1       1.253   0.330  -2.431  0.00  0.00    -0.076 A 
ATOM      2  C3  UNL d   1       0.137   1.118  -2.761  0.00  0.00     0.004 A 
ATOM      3  C4  UNL d   1       0.203   2.064  -3.782  0.00  0.00    -0.003 A 
ATOM      4  C5  UNL d   1       1.387   2.237  -4.491  0.00  0.00     0.000 A 
ATOM      5  C6  UNL d   1       2.499   1.452  -4.189  0.00  0.00     0.000 A 
ATOM      6  C7  UNL d   1       2.444   0.482  -3.173  0.00  0.00    -0.073 A 
ATOM      7  C8  UNL d   1       3.675  -0.333  -2.886  0.00  0.00     0.078 C 
ENDROOT
BRANCH   1   8
ATOM      8  C1  UNL d   1       1.130  -0.661  -1.296  0.00  0.00     0.053 C 
ATOM      9  C   UNL d   1       1.421  -0.034   0.059  0.00  0.00     0.018 C 
ENDBRANCH   1   8
TORSDOF 1
ENDMDL
