MODEL 1
REMARK minimizedAffinity 3.2195859
REMARK minimizedRMSD -1
REMARK  1 active torsions:
REMARK  status: ('A' for Active; 'I' for Inactive)
REMARK    1  A    between atoms: C1_2  and  C2_3 
ROOT
ATOM      1  C2  UNL d   1       2.330  -0.512  -1.247  0.00  0.00    -0.076 A 
ATOM      2  C3  UNL d   1       1.585   0.421  -1.989  0.00  0.00     0.004 A 
ATOM      3  C4  UNL d   1       1.795   0.582  -3.357  0.00  0.00    -0.003 A 
ATOM      4  C5  UNL d   1       2.754  -0.188  -4.006  0.00  0.00     0.000 A 
ATOM      5  C6  UNL d   1       3.490  -1.131  -3.290  0.00  0.00     0.000 A 
ATOM      6  C7  UNL d   1       3.279  -1.317  -1.913  0.00  0.00    -0.073 A 
ATOM      7  C8  UNL d   1       4.106  -2.344  -1.188  0.00  0.00     0.078 C 
ENDROOT
BRANCH   1   8
ATOM      8  C1  UNL d   1       2.077  -0.624   0.239  0.00  0.00     0.053 C 
ATOM      9  C   UNL d   1       1.736   0.716   0.875  0.00  0.00     0.018 C 
ENDBRANCH   1   8
TORSDOF 1
ENDMDL
