MODEL 1
REMARK minimizedAffinity -1.74569666
REMARK minimizedRMSD -1
REMARK  0 active torsions:
REMARK  status: ('A' for Active; 'I' for Inactive)
ROOT
ATOM      1  C   UNL d   1      -2.624   0.205  -0.348  0.00  0.00     0.077 C 
ATOM      2  C1  UNL d   1      -1.290   0.742   0.081  0.00  0.00    -0.074 A 
ATOM      3  C2  UNL d   1      -0.915   2.056  -0.218  0.00  0.00    -0.005 A 
ATOM      4  C3  UNL d   1       0.325   2.544   0.195  0.00  0.00     0.006 A 
ATOM      5  C4  UNL d   1       1.200   1.725   0.910  0.00  0.00    -0.005 A 
ATOM      6  C5  UNL d   1       0.842   0.409   1.218  0.00  0.00    -0.074 A 
ATOM      7  C6  UNL d   1       1.766  -0.481   1.993  0.00  0.00     0.077 C 
ATOM      8  C7  UNL d   1      -0.409  -0.072   0.805  0.00  0.00    -0.001 A 
ENDROOT
TORSDOF 0
ENDMDL
