MODEL 1
REMARK minimizedAffinity -2.80964017
REMARK minimizedRMSD -1
REMARK  0 active torsions:
REMARK  status: ('A' for Active; 'I' for Inactive)
ROOT
ATOM      1  C   UNL d   1      -4.041   0.795   1.273  0.00  0.00     0.077 C 
ATOM      2  C1  UNL d   1      -2.639   0.912   0.752  0.00  0.00    -0.074 A 
ATOM      3  C2  UNL d   1      -1.930   2.113   0.859  0.00  0.00    -0.005 A 
ATOM      4  C3  UNL d   1      -0.624   2.204   0.378  0.00  0.00     0.006 A 
ATOM      5  C4  UNL d   1      -0.015   1.097  -0.214  0.00  0.00    -0.005 A 
ATOM      6  C5  UNL d   1      -0.707  -0.112  -0.329  0.00  0.00    -0.074 A 
ATOM      7  C6  UNL d   1      -0.063  -1.314  -0.953  0.00  0.00     0.077 C 
ATOM      8  C7  UNL d   1      -2.017  -0.198   0.163  0.00  0.00    -0.001 A 
ENDROOT
TORSDOF 0
ENDMDL
