MODEL 1
REMARK minimizedAffinity -4.43628597
REMARK minimizedRMSD -1
REMARK  0 active torsions:
REMARK  status: ('A' for Active; 'I' for Inactive)
ROOT
ATOM      1  C   UNL d   1      -2.458   1.260   1.283  0.00  0.00     0.077 C 
ATOM      2  C1  UNL d   1      -1.485   0.414   0.517  0.00  0.00    -0.074 A 
ATOM      3  C2  UNL d   1      -1.822  -0.118  -0.732  0.00  0.00    -0.005 A 
ATOM      4  C3  UNL d   1      -0.903  -0.896  -1.436  0.00  0.00     0.006 A 
ATOM      5  C4  UNL d   1       0.361  -1.149  -0.900  0.00  0.00    -0.005 A 
ATOM      6  C5  UNL d   1       0.716  -0.624   0.347  0.00  0.00    -0.074 A 
ATOM      7  C6  UNL d   1       2.073  -0.879   0.933  0.00  0.00     0.077 C 
ATOM      8  C7  UNL d   1      -0.211   0.162   1.046  0.00  0.00    -0.001 A 
ENDROOT
TORSDOF 0
ENDMDL
