MODEL 1
REMARK minimizedAffinity -6.00238132
REMARK minimizedRMSD -1
REMARK  0 active torsions:
REMARK  status: ('A' for Active; 'I' for Inactive)
ROOT
ATOM      1  C   UNL d   1       3.514  -0.065   0.696  0.00  0.00     0.077 C 
ATOM      2  C1  UNL d   1       2.122  -0.218   0.159  0.00  0.00    -0.074 A 
ATOM      3  C2  UNL d   1       1.228   0.858   0.166  0.00  0.00    -0.005 A 
ATOM      4  C3  UNL d   1      -0.061   0.703  -0.346  0.00  0.00     0.006 A 
ATOM      5  C4  UNL d   1      -0.467  -0.525  -0.867  0.00  0.00    -0.005 A 
ATOM      6  C5  UNL d   1       0.413  -1.611  -0.882  0.00  0.00    -0.074 A 
ATOM      7  C6  UNL d   1      -0.005  -2.936  -1.448  0.00  0.00     0.077 C 
ATOM      8  C7  UNL d   1       1.709  -1.447  -0.373  0.00  0.00    -0.001 A 
ENDROOT
TORSDOF 0
ENDMDL
