MODEL 1
REMARK minimizedAffinity -3.16488647
REMARK minimizedRMSD -1
REMARK  0 active torsions:
REMARK  status: ('A' for Active; 'I' for Inactive)
ROOT
ATOM      1  C   UNL d   1       2.751  -1.940   1.520  0.00  0.00     0.077 C 
ATOM      2  C1  UNL d   1       1.746  -1.599   0.460  0.00  0.00    -0.074 A 
ATOM      3  C2  UNL d   1       1.402  -2.525  -0.530  0.00  0.00    -0.005 A 
ATOM      4  C3  UNL d   1       0.459  -2.197  -1.503  0.00  0.00     0.006 A 
ATOM      5  C4  UNL d   1      -0.150  -0.941  -1.497  0.00  0.00    -0.005 A 
ATOM      6  C5  UNL d   1       0.181  -0.002  -0.514  0.00  0.00    -0.074 A 
ATOM      7  C6  UNL d   1      -0.471   1.348  -0.487  0.00  0.00     0.077 C 
ATOM      8  C7  UNL d   1       1.124  -0.342   0.465  0.00  0.00    -0.001 A 
ENDROOT
TORSDOF 0
ENDMDL
