MODEL 1
REMARK minimizedAffinity -3.56143594
REMARK minimizedRMSD -1
REMARK  0 active torsions:
REMARK  status: ('A' for Active; 'I' for Inactive)
ROOT
ATOM      1  C   UNL d   1       2.968   0.145   0.863  0.00  0.00     0.077 C 
ATOM      2  C1  UNL d   1       1.599   0.273   0.265  0.00  0.00    -0.074 A 
ATOM      3  C2  UNL d   1       1.009   1.528   0.083  0.00  0.00    -0.005 A 
ATOM      4  C3  UNL d   1      -0.261   1.633  -0.483  0.00  0.00     0.006 A 
ATOM      5  C4  UNL d   1      -0.953   0.486  -0.872  0.00  0.00    -0.005 A 
ATOM      6  C5  UNL d   1      -0.379  -0.778  -0.699  0.00  0.00    -0.074 A 
ATOM      7  C6  UNL d   1      -1.106  -2.020  -1.121  0.00  0.00     0.077 C 
ATOM      8  C7  UNL d   1       0.900  -0.874  -0.136  0.00  0.00    -0.001 A 
ENDROOT
TORSDOF 0
ENDMDL
