MODEL 1
REMARK minimizedAffinity -2.73278403
REMARK minimizedRMSD -1
REMARK  0 active torsions:
REMARK  status: ('A' for Active; 'I' for Inactive)
ROOT
ATOM      1  C   UNL d   1      -2.226   1.527  -0.311  0.00  0.00     0.077 C 
ATOM      2  C1  UNL d   1      -0.936   0.765  -0.258  0.00  0.00    -0.074 A 
ATOM      3  C2  UNL d   1       0.171   1.272   0.431  0.00  0.00    -0.005 A 
ATOM      4  C3  UNL d   1       1.362   0.548   0.481  0.00  0.00     0.006 A 
ATOM      5  C4  UNL d   1       1.458  -0.690  -0.157  0.00  0.00    -0.005 A 
ATOM      6  C5  UNL d   1       0.362  -1.214  -0.850  0.00  0.00    -0.074 A 
ATOM      7  C6  UNL d   1       0.445  -2.547  -1.532  0.00  0.00     0.077 C 
ATOM      8  C7  UNL d   1      -0.833  -0.483  -0.889  0.00  0.00    -0.001 A 
ENDROOT
TORSDOF 0
ENDMDL
