MODEL 1
REMARK minimizedAffinity -4.96066093
REMARK minimizedRMSD -1
REMARK  0 active torsions:
REMARK  status: ('A' for Active; 'I' for Inactive)
ROOT
ATOM      1  C   UNL d   1       2.350   1.661   1.409  0.00  0.00     0.077 C 
ATOM      2  C1  UNL d   1       1.588   0.565   0.724  0.00  0.00    -0.074 A 
ATOM      3  C2  UNL d   1       2.125  -0.721   0.609  0.00  0.00    -0.005 A 
ATOM      4  C3  UNL d   1       1.400  -1.732  -0.022  0.00  0.00     0.006 A 
ATOM      5  C4  UNL d   1       0.134  -1.468  -0.545  0.00  0.00    -0.005 A 
ATOM      6  C5  UNL d   1      -0.420  -0.188  -0.439  0.00  0.00    -0.074 A 
ATOM      7  C6  UNL d   1      -1.784   0.111  -0.986  0.00  0.00     0.077 C 
ATOM      8  C7  UNL d   1       0.311   0.821   0.203  0.00  0.00    -0.001 A 
ENDROOT
TORSDOF 0
ENDMDL
