MODEL 1
REMARK minimizedAffinity 6.919662
REMARK minimizedRMSD -1
REMARK  0 active torsions:
REMARK  status: ('A' for Active; 'I' for Inactive)
ROOT
ATOM      1  C   UNL d   1      -2.248   1.818  -0.011  0.00  0.00     0.078 C 
ATOM      2  C1  UNL d   1      -3.551   2.531   0.195  0.00  0.00    -0.077 A 
ATOM      3  C2  UNL d   1      -4.070   2.727   1.481  0.00  0.00    -0.001 A 
ATOM      4  C3  UNL d   1      -5.289   3.384   1.658  0.00  0.00     0.003 A 
ATOM      5  C4  UNL d   1      -6.000   3.848   0.553  0.00  0.00    -0.005 A 
ATOM      6  C5  UNL d   1      -5.493   3.655  -0.730  0.00  0.00     0.003 A 
ATOM      7  C6  UNL d   1      -4.274   2.999  -0.909  0.00  0.00    -0.001 A 
ENDROOT
TORSDOF 0
ENDMDL
