MODEL 1
REMARK minimizedAffinity 2.01210999
REMARK minimizedRMSD -1
REMARK  0 active torsions:
REMARK  status: ('A' for Active; 'I' for Inactive)
ROOT
ATOM      1  C   UNL d   1       1.883  -0.716   2.553  0.00  0.00     0.078 C 
ATOM      2  C1  UNL d   1       2.316  -1.969   3.255  0.00  0.00    -0.077 A 
ATOM      3  C2  UNL d   1       1.511  -3.114   3.249  0.00  0.00    -0.001 A 
ATOM      4  C3  UNL d   1       1.922  -4.270   3.914  0.00  0.00     0.003 A 
ATOM      5  C4  UNL d   1       3.140  -4.292   4.591  0.00  0.00    -0.005 A 
ATOM      6  C5  UNL d   1       3.947  -3.156   4.605  0.00  0.00     0.003 A 
ATOM      7  C6  UNL d   1       3.537  -1.999   3.940  0.00  0.00    -0.001 A 
ENDROOT
TORSDOF 0
ENDMDL
