MODEL 1
REMARK minimizedAffinity -4.47178745
REMARK minimizedRMSD -1
REMARK  0 active torsions:
REMARK  status: ('A' for Active; 'I' for Inactive)
ROOT
ATOM      1  C   UNL d   1       2.110  -1.513   2.998  0.00  0.00     0.078 C 
ATOM      2  C1  UNL d   1       2.109  -2.630   3.999  0.00  0.00    -0.077 A 
ATOM      3  C2  UNL d   1       2.998  -2.628   5.081  0.00  0.00    -0.001 A 
ATOM      4  C3  UNL d   1       2.993  -3.678   6.000  0.00  0.00     0.003 A 
ATOM      5  C4  UNL d   1       2.103  -4.739   5.845  0.00  0.00    -0.005 A 
ATOM      6  C5  UNL d   1       1.217  -4.751   4.770  0.00  0.00     0.003 A 
ATOM      7  C6  UNL d   1       1.220  -3.701   3.850  0.00  0.00    -0.001 A 
ENDROOT
TORSDOF 0
ENDMDL
