MODEL 1
REMARK minimizedAffinity -2.56790257
REMARK minimizedRMSD -1
REMARK  0 active torsions:
REMARK  status: ('A' for Active; 'I' for Inactive)
ROOT
ATOM      1  C   UNL d   1       1.441  -1.141   2.223  0.00  0.00     0.078 C 
ATOM      2  C1  UNL d   1       1.772  -2.310   3.102  0.00  0.00    -0.077 A 
ATOM      3  C2  UNL d   1       1.640  -2.226   4.493  0.00  0.00    -0.001 A 
ATOM      4  C3  UNL d   1       1.960  -3.319   5.300  0.00  0.00     0.003 A 
ATOM      5  C4  UNL d   1       2.416  -4.503   4.724  0.00  0.00    -0.005 A 
ATOM      6  C5  UNL d   1       2.553  -4.595   3.341  0.00  0.00     0.003 A 
ATOM      7  C6  UNL d   1       2.233  -3.503   2.533  0.00  0.00    -0.001 A 
ENDROOT
TORSDOF 0
ENDMDL
