MODEL 1
REMARK minimizedAffinity -2.73209047
REMARK minimizedRMSD -1
REMARK  0 active torsions:
REMARK  status: ('A' for Active; 'I' for Inactive)
ROOT
ATOM      1  C   UNL d   1       2.728   0.427   1.909  0.00  0.00     0.078 C 
ATOM      2  C1  UNL d   1       2.245  -0.864   2.500  0.00  0.00    -0.077 A 
ATOM      3  C2  UNL d   1       2.333  -1.106   3.876  0.00  0.00    -0.001 A 
ATOM      4  C3  UNL d   1       1.889  -2.316   4.411  0.00  0.00     0.003 A 
ATOM      5  C4  UNL d   1       1.354  -3.295   3.576  0.00  0.00    -0.005 A 
ATOM      6  C5  UNL d   1       1.264  -3.065   2.205  0.00  0.00     0.003 A 
ATOM      7  C6  UNL d   1       1.708  -1.855   1.669  0.00  0.00    -0.001 A 
ENDROOT
TORSDOF 0
ENDMDL
