MODEL 1
REMARK minimizedAffinity 2.25176144
REMARK minimizedRMSD -1
REMARK  0 active torsions:
REMARK  status: ('A' for Active; 'I' for Inactive)
ROOT
ATOM      1  C   UNL d   1       1.482  -2.095   3.021  0.00  0.00     0.078 C 
ATOM      2  C1  UNL d   1       1.863  -0.647   2.940  0.00  0.00    -0.077 A 
ATOM      3  C2  UNL d   1       2.561  -0.145   1.835  0.00  0.00    -0.001 A 
ATOM      4  C3  UNL d   1       2.917   1.203   1.777  0.00  0.00     0.003 A 
ATOM      5  C4  UNL d   1       2.580   2.061   2.822  0.00  0.00    -0.005 A 
ATOM      6  C5  UNL d   1       1.887   1.570   3.927  0.00  0.00     0.003 A 
ATOM      7  C6  UNL d   1       1.530   0.222   3.986  0.00  0.00    -0.001 A 
ENDROOT
TORSDOF 0
ENDMDL
