MODEL 1
REMARK minimizedAffinity 3.72327638
REMARK minimizedRMSD -1
REMARK  0 active torsions:
REMARK  status: ('A' for Active; 'I' for Inactive)
ROOT
ATOM      1  C   UNL d   1      -3.031   3.016  -1.956  0.00  0.00     0.078 C 
ATOM      2  C1  UNL d   1      -3.860   3.009  -0.707  0.00  0.00    -0.077 A 
ATOM      3  C2  UNL d   1      -3.304   2.646   0.526  0.00  0.00    -0.001 A 
ATOM      4  C3  UNL d   1      -4.090   2.634   1.679  0.00  0.00     0.003 A 
ATOM      5  C4  UNL d   1      -5.437   2.984   1.611  0.00  0.00    -0.005 A 
ATOM      6  C5  UNL d   1      -6.000   3.345   0.389  0.00  0.00     0.003 A 
ATOM      7  C6  UNL d   1      -5.216   3.357  -0.766  0.00  0.00    -0.001 A 
ENDROOT
TORSDOF 0
ENDMDL
