MODEL 1
REMARK minimizedAffinity 0.0306750778
REMARK minimizedRMSD -1
REMARK  0 active torsions:
REMARK  status: ('A' for Active; 'I' for Inactive)
ROOT
ATOM      1  C   UNL d   1       2.601  -6.000  -4.949  0.00  0.00     0.078 C 
ATOM      2  C1  UNL d   1       3.085  -5.990  -3.530  0.00  0.00    -0.077 A 
ATOM      3  C2  UNL d   1       4.453  -5.987  -3.234  0.00  0.00    -0.001 A 
ATOM      4  C3  UNL d   1       4.889  -5.988  -1.908  0.00  0.00     0.003 A 
ATOM      5  C4  UNL d   1       3.962  -5.993  -0.867  0.00  0.00    -0.005 A 
ATOM      6  C5  UNL d   1       2.598  -5.999  -1.152  0.00  0.00     0.003 A 
ATOM      7  C6  UNL d   1       2.161  -5.998  -2.477  0.00  0.00    -0.001 A 
ENDROOT
TORSDOF 0
ENDMDL
