MODEL 1
REMARK minimizedAffinity -0.585458338
REMARK minimizedRMSD -1
REMARK  0 active torsions:
REMARK  status: ('A' for Active; 'I' for Inactive)
ROOT
ATOM      1  C   UNL d   1       2.454   0.102   1.483  0.00  0.00     0.078 C 
ATOM      2  C1  UNL d   1       2.362  -1.105   2.367  0.00  0.00    -0.077 A 
ATOM      3  C2  UNL d   1       3.484  -1.909   2.608  0.00  0.00    -0.001 A 
ATOM      4  C3  UNL d   1       3.382  -3.035   3.426  0.00  0.00     0.003 A 
ATOM      5  C4  UNL d   1       2.161  -3.370   4.008  0.00  0.00    -0.005 A 
ATOM      6  C5  UNL d   1       1.039  -2.577   3.772  0.00  0.00     0.003 A 
ATOM      7  C6  UNL d   1       1.139  -1.450   2.954  0.00  0.00    -0.001 A 
ENDROOT
TORSDOF 0
ENDMDL
