MODEL 1
REMARK minimizedAffinity 7.49087858
REMARK minimizedRMSD -1
REMARK  0 active torsions:
REMARK  status: ('A' for Active; 'I' for Inactive)
ROOT
ATOM      1  C   UNL d   1      -2.702  -0.471  -3.422  0.00  0.00     0.078 C 
ATOM      2  C1  UNL d   1      -2.620   0.697  -2.485  0.00  0.00    -0.077 A 
ATOM      3  C2  UNL d   1      -2.116   0.547  -1.187  0.00  0.00    -0.001 A 
ATOM      4  C3  UNL d   1      -2.054   1.641  -0.323  0.00  0.00     0.003 A 
ATOM      5  C4  UNL d   1      -2.495   2.893  -0.747  0.00  0.00    -0.005 A 
ATOM      6  C5  UNL d   1      -3.000   3.052  -2.036  0.00  0.00     0.003 A 
ATOM      7  C6  UNL d   1      -3.063   1.959  -2.901  0.00  0.00    -0.001 A 
ENDROOT
TORSDOF 0
ENDMDL
