MODEL 1
REMARK minimizedAffinity -0.232515305
REMARK minimizedRMSD -1
REMARK  0 active torsions:
REMARK  status: ('A' for Active; 'I' for Inactive)
ROOT
ATOM      1  C   UNL d   1       1.939  -5.974  -5.373  0.00  0.00     0.078 C 
ATOM      2  C1  UNL d   1       2.665  -5.987  -4.061  0.00  0.00    -0.077 A 
ATOM      3  C2  UNL d   1       1.963  -5.998  -2.849  0.00  0.00    -0.001 A 
ATOM      4  C3  UNL d   1       2.652  -6.000  -1.635  0.00  0.00     0.003 A 
ATOM      5  C4  UNL d   1       4.045  -5.990  -1.621  0.00  0.00    -0.005 A 
ATOM      6  C5  UNL d   1       4.752  -5.977  -2.822  0.00  0.00     0.003 A 
ATOM      7  C6  UNL d   1       4.065  -5.975  -4.037  0.00  0.00    -0.001 A 
ENDROOT
TORSDOF 0
ENDMDL
