MODEL 1
REMARK minimizedAffinity 1.97302616
REMARK minimizedRMSD -1
REMARK  0 active torsions:
REMARK  status: ('A' for Active; 'I' for Inactive)
ROOT
ATOM      1  C   UNL d   1      -3.103   2.716  -2.472  0.00  0.00     0.078 C 
ATOM      2  C1  UNL d   1      -3.563   2.883  -1.054  0.00  0.00    -0.077 A 
ATOM      3  C2  UNL d   1      -2.762   2.470   0.017  0.00  0.00    -0.001 A 
ATOM      4  C3  UNL d   1      -3.207   2.623   1.331  0.00  0.00     0.003 A 
ATOM      5  C4  UNL d   1      -4.455   3.188   1.586  0.00  0.00    -0.005 A 
ATOM      6  C5  UNL d   1      -5.260   3.600   0.527  0.00  0.00     0.003 A 
ATOM      7  C6  UNL d   1      -4.817   3.448  -0.788  0.00  0.00    -0.001 A 
ENDROOT
TORSDOF 0
ENDMDL
