MODEL 1
REMARK minimizedAffinity -0.139550537
REMARK minimizedRMSD -1
REMARK  0 active torsions:
REMARK  status: ('A' for Active; 'I' for Inactive)
ROOT
ATOM      1  C4' PXY d   1       0.909  -1.068   2.243  0.00  0.00     0.077 C 
ATOM      2  C1' PXY d   1       0.157   4.403   0.537  0.00  0.00     0.077 C 
ATOM      3  C1  PXY d   1       0.346   2.964   0.975  0.00  0.00    -0.082 A 
ATOM      4  C2  PXY d   1       0.756   2.704   2.206  0.00  0.00     0.003 A 
ATOM      5  C3  PXY d   1       0.963   1.410   2.609  0.00  0.00     0.003 A 
ATOM      6  C4  PXY d   1       0.696   0.369   1.760  0.00  0.00    -0.082 A 
ATOM      7  C5  PXY d   1       0.266   0.626   0.507  0.00  0.00     0.003 A 
ATOM      8  C6  PXY d   1       0.102   1.948   0.104  0.00  0.00     0.003 A 
ENDROOT
TORSDOF 0
ENDMDL
