MODEL 1
REMARK minimizedAffinity 8.37436962
REMARK minimizedRMSD -1
REMARK  0 active torsions:
REMARK  status: ('A' for Active; 'I' for Inactive)
ROOT
ATOM      1  C4' PXY d   1      -0.784  -1.820  -2.104  0.00  0.00     0.077 C 
ATOM      2  C1' PXY d   1      -4.098   2.915  -2.214  0.00  0.00     0.077 C 
ATOM      3  C1  PXY d   1      -3.218   1.681  -2.185  0.00  0.00    -0.082 A 
ATOM      4  C2  PXY d   1      -3.700   0.524  -2.610  0.00  0.00     0.003 A 
ATOM      5  C3  PXY d   1      -2.929  -0.609  -2.561  0.00  0.00     0.003 A 
ATOM      6  C4  PXY d   1      -1.633  -0.546  -2.123  0.00  0.00    -0.082 A 
ATOM      7  C5  PXY d   1      -1.130   0.633  -1.699  0.00  0.00     0.003 A 
ATOM      8  C6  PXY d   1      -1.943   1.762  -1.718  0.00  0.00     0.003 A 
ENDROOT
TORSDOF 0
ENDMDL
