MODEL 1
REMARK minimizedAffinity 1.55735338
REMARK minimizedRMSD -1
REMARK  0 active torsions:
REMARK  status: ('A' for Active; 'I' for Inactive)
ROOT
ATOM      1  C4' PXY d   1      -1.465   0.147  -1.634  0.00  0.00     0.077 C 
ATOM      2  C1' PXY d   1       1.054   3.628   2.232  0.00  0.00     0.077 C 
ATOM      3  C1  PXY d   1       0.399   2.705   1.225  0.00  0.00    -0.082 A 
ATOM      4  C2  PXY d   1       0.096   3.161   0.020  0.00  0.00     0.003 A 
ATOM      5  C3  PXY d   1      -0.527   2.349  -0.893  0.00  0.00     0.003 A 
ATOM      6  C4  PXY d   1      -0.794   1.041  -0.588  0.00  0.00    -0.082 A 
ATOM      7  C5  PXY d   1      -0.478   0.565   0.635  0.00  0.00     0.003 A 
ATOM      8  C6  PXY d   1       0.116   1.417   1.562  0.00  0.00     0.003 A 
ENDROOT
TORSDOF 0
ENDMDL
