MODEL 1
REMARK minimizedAffinity 2.76239252
REMARK minimizedRMSD -1
REMARK  0 active torsions:
REMARK  status: ('A' for Active; 'I' for Inactive)
ROOT
ATOM      1  C4' PXY d   1      -0.397   0.095  -2.036  0.00  0.00     0.077 C 
ATOM      2  C1' PXY d   1      -4.239   4.188  -3.416  0.00  0.00     0.077 C 
ATOM      3  C1  PXY d   1      -3.222   3.123  -3.057  0.00  0.00    -0.082 A 
ATOM      4  C2  PXY d   1      -3.562   1.846  -3.118  0.00  0.00     0.003 A 
ATOM      5  C3  PXY d   1      -2.665   0.871  -2.766  0.00  0.00     0.003 A 
ATOM      6  C4  PXY d   1      -1.389   1.204  -2.399  0.00  0.00    -0.082 A 
ATOM      7  C5  PXY d   1      -1.030   2.505  -2.344  0.00  0.00     0.003 A 
ATOM      8  C6  PXY d   1      -1.969   3.481  -2.666  0.00  0.00     0.003 A 
ENDROOT
TORSDOF 0
ENDMDL
