MODEL 1
REMARK minimizedAffinity 4.3206501
REMARK minimizedRMSD -1
REMARK  0 active torsions:
REMARK  status: ('A' for Active; 'I' for Inactive)
ROOT
ATOM      1  C4' PXY d   1      -0.742   6.000  -1.704  0.00  0.00     0.077 C 
ATOM      2  C1' PXY d   1      -0.992   1.833   2.294  0.00  0.00     0.077 C 
ATOM      3  C1  PXY d   1      -0.916   2.920   1.240  0.00  0.00    -0.082 A 
ATOM      4  C2  PXY d   1      -1.414   4.118   1.499  0.00  0.00     0.003 A 
ATOM      5  C3  PXY d   1      -1.382   5.103   0.546  0.00  0.00     0.003 A 
ATOM      6  C4  PXY d   1      -0.788   4.875  -0.666  0.00  0.00    -0.082 A 
ATOM      7  C5  PXY d   1      -0.268   3.658  -0.934  0.00  0.00     0.003 A 
ATOM      8  C6  PXY d   1      -0.347   2.660   0.032  0.00  0.00     0.003 A 
ENDROOT
TORSDOF 0
ENDMDL
