MODEL 1
REMARK minimizedAffinity 5.47308969
REMARK minimizedRMSD -1
REMARK  0 active torsions:
REMARK  status: ('A' for Active; 'I' for Inactive)
ROOT
ATOM      1  C4' PXY d   1       1.116  -5.562  -0.514  0.00  0.00     0.077 C 
ATOM      2  C1' PXY d   1       5.274  -5.556  -4.529  0.00  0.00     0.077 C 
ATOM      3  C1  PXY d   1       4.190  -5.566  -3.469  0.00  0.00    -0.082 A 
ATOM      4  C2  PXY d   1       2.944  -5.275  -3.805  0.00  0.00     0.003 A 
ATOM      5  C3  PXY d   1       1.957  -5.248  -2.852  0.00  0.00     0.003 A 
ATOM      6  C4  PXY d   1       2.240  -5.574  -1.553  0.00  0.00    -0.082 A 
ATOM      7  C5  PXY d   1       3.507  -5.882  -1.205  0.00  0.00     0.003 A 
ATOM      8  C6  PXY d   1       4.502  -5.863  -2.178  0.00  0.00     0.003 A 
ENDROOT
TORSDOF 0
ENDMDL
