MODEL 1
REMARK minimizedAffinity 5.6730895
REMARK minimizedRMSD -1
REMARK  0 active torsions:
REMARK  status: ('A' for Active; 'I' for Inactive)
ROOT
ATOM      1  C4' PXY d   1      -4.155   3.480  -3.022  0.00  0.00     0.077 C 
ATOM      2  C1' PXY d   1      -0.648  -0.891  -1.603  0.00  0.00     0.077 C 
ATOM      3  C1  PXY d   1      -1.577   0.247  -1.979  0.00  0.00    -0.082 A 
ATOM      4  C2  PXY d   1      -1.073   1.441  -2.244  0.00  0.00     0.003 A 
ATOM      5  C3  PXY d   1      -1.901   2.489  -2.555  0.00  0.00     0.003 A 
ATOM      6  C4  PXY d   1      -3.254   2.300  -2.647  0.00  0.00    -0.082 A 
ATOM      7  C5  PXY d   1      -3.774   1.081  -2.389  0.00  0.00     0.003 A 
ATOM      8  C6  PXY d   1      -2.920   0.040  -2.035  0.00  0.00     0.003 A 
ENDROOT
TORSDOF 0
ENDMDL
