MODEL 1
REMARK minimizedAffinity 2.29876208
REMARK minimizedRMSD -1
REMARK  0 active torsions:
REMARK  status: ('A' for Active; 'I' for Inactive)
ROOT
ATOM      1  C4' PXY d   1      -4.636   4.158  -3.066  0.00  0.00     0.077 C 
ATOM      2  C1' PXY d   1      -0.871   0.028  -1.588  0.00  0.00     0.077 C 
ATOM      3  C1  PXY d   1      -1.866   1.102  -1.981  0.00  0.00    -0.082 A 
ATOM      4  C2  PXY d   1      -1.457   2.352  -2.126  0.00  0.00     0.003 A 
ATOM      5  C3  PXY d   1      -2.349   3.342  -2.450  0.00  0.00     0.003 A 
ATOM      6  C4  PXY d   1      -3.665   3.040  -2.680  0.00  0.00    -0.082 A 
ATOM      7  C5  PXY d   1      -4.088   1.765  -2.544  0.00  0.00     0.003 A 
ATOM      8  C6  PXY d   1      -3.175   0.783  -2.175  0.00  0.00     0.003 A 
ENDROOT
TORSDOF 0
ENDMDL
