MODEL 1
REMARK minimizedAffinity -1.62174666
REMARK minimizedRMSD -1
REMARK  0 active torsions:
REMARK  status: ('A' for Active; 'I' for Inactive)
ROOT
ATOM      1  C4' PXY d   1       2.640   6.000   0.758  0.00  0.00     0.077 C 
ATOM      2  C1' PXY d   1       0.045   1.055   2.250  0.00  0.00     0.077 C 
ATOM      3  C1  PXY d   1       0.724   2.348   1.846  0.00  0.00    -0.082 A 
ATOM      4  C2  PXY d   1       1.529   2.959   2.700  0.00  0.00     0.003 A 
ATOM      5  C3  PXY d   1       2.126   4.147   2.363  0.00  0.00     0.003 A 
ATOM      6  C4  PXY d   1       1.940   4.687   1.119  0.00  0.00    -0.082 A 
ATOM      7  C5  PXY d   1       1.129   4.064   0.238  0.00  0.00     0.003 A 
ATOM      8  C6  PXY d   1       0.500   2.881   0.614  0.00  0.00     0.003 A 
ENDROOT
TORSDOF 0
ENDMDL
