MODEL 1
REMARK minimizedAffinity 6.71396112
REMARK minimizedRMSD -1
REMARK  0 active torsions:
REMARK  status: ('A' for Active; 'I' for Inactive)
ROOT
ATOM      1  C4' PXY d   1      -2.878  -0.904  -2.684  0.00  0.00     0.077 C 
ATOM      2  C1' PXY d   1      -0.610   4.362  -1.945  0.00  0.00     0.077 C 
ATOM      3  C1  PXY d   1      -1.193   2.976  -2.141  0.00  0.00    -0.082 A 
ATOM      4  C2  PXY d   1      -2.466   2.844  -2.478  0.00  0.00     0.003 A 
ATOM      5  C3  PXY d   1      -3.017   1.597  -2.628  0.00  0.00     0.003 A 
ATOM      6  C4  PXY d   1      -2.245   0.476  -2.484  0.00  0.00    -0.082 A 
ATOM      7  C5  PXY d   1      -0.943   0.603  -2.152  0.00  0.00     0.003 A 
ATOM      8  C6  PXY d   1      -0.412   1.876  -1.963  0.00  0.00     0.003 A 
ENDROOT
TORSDOF 0
ENDMDL
