MODEL 1
REMARK minimizedAffinity -3.65944028
REMARK minimizedRMSD -1
REMARK  0 active torsions:
REMARK  status: ('A' for Active; 'I' for Inactive)
ROOT
ATOM      1  C4' PXY d   1      -0.005  -0.368   1.494  0.00  0.00     0.077 C 
ATOM      2  C1' PXY d   1      -0.315   4.850  -0.975  0.00  0.00     0.077 C 
ATOM      3  C1  PXY d   1      -0.240   3.477  -0.337  0.00  0.00    -0.082 A 
ATOM      4  C2  PXY d   1      -0.045   3.371   0.967  0.00  0.00     0.003 A 
ATOM      5  C3  PXY d   1       0.057   2.136   1.555  0.00  0.00     0.003 A 
ATOM      6  C4  PXY d   1      -0.096   0.999   0.809  0.00  0.00    -0.082 A 
ATOM      7  C5  PXY d   1      -0.306   1.098  -0.521  0.00  0.00     0.003 A 
ATOM      8  C6  PXY d   1      -0.365   2.360  -1.105  0.00  0.00     0.003 A 
ENDROOT
TORSDOF 0
ENDMDL
