MODEL 1
REMARK minimizedAffinity -4.09704781
REMARK minimizedRMSD -1
REMARK  0 active torsions:
REMARK  status: ('A' for Active; 'I' for Inactive)
ROOT
ATOM      1  C   UNL d   1       0.458  -0.213  -0.707  0.00  0.00     0.172 C 
ATOM      2  N   UNL d   1      -0.038   0.399   0.503  0.00  0.00    -0.070 N 
ATOM      3  C1  UNL d   1       0.729   0.827   1.554  0.00  0.00    -0.004 A 
ATOM      4  C2  UNL d   1      -0.117   1.350   2.508  0.00  0.00    -0.047 A 
ATOM      5  C3  UNL d   1      -1.438   1.232   2.014  0.00  0.00    -0.047 A 
ATOM      6  C4  UNL d   1      -1.360   0.640   0.771  0.00  0.00    -0.004 A 
ENDROOT
TORSDOF 0
ENDMDL
