MODEL 1
REMARK minimizedAffinity -3.89461112
REMARK minimizedRMSD -1
REMARK  0 active torsions:
REMARK  status: ('A' for Active; 'I' for Inactive)
ROOT
ATOM      1  C   UNL d   1       0.027  -0.042  -0.822  0.00  0.00     0.172 C 
ATOM      2  N   UNL d   1      -0.273   0.234   0.563  0.00  0.00    -0.070 N 
ATOM      3  C1  UNL d   1       0.543  -0.044   1.627  0.00  0.00    -0.004 A 
ATOM      4  C2  UNL d   1      -0.101   0.371   2.773  0.00  0.00    -0.047 A 
ATOM      5  C3  UNL d   1      -1.348   0.917   2.383  0.00  0.00    -0.047 A 
ATOM      6  C4  UNL d   1      -1.428   0.820   1.010  0.00  0.00    -0.004 A 
ENDROOT
TORSDOF 0
ENDMDL
