MODEL 1
REMARK minimizedAffinity -2.88086343
REMARK minimizedRMSD -1
REMARK  0 active torsions:
REMARK  status: ('A' for Active; 'I' for Inactive)
ROOT
ATOM      1  C   UNL d   1      -1.142   1.238   2.320  0.00  0.00     0.172 C 
ATOM      2  N   UNL d   1      -0.745   0.545   1.117  0.00  0.00    -0.070 N 
ATOM      3  C1  UNL d   1      -1.581   0.167   0.100  0.00  0.00    -0.004 A 
ATOM      4  C2  UNL d   1      -0.819  -0.464  -0.860  0.00  0.00    -0.047 A 
ATOM      5  C3  UNL d   1       0.520  -0.467  -0.404  0.00  0.00    -0.047 A 
ATOM      6  C4  UNL d   1       0.538   0.164   0.822  0.00  0.00    -0.004 A 
ENDROOT
TORSDOF 0
ENDMDL
