MODEL 1
REMARK minimizedAffinity -2.99101949
REMARK minimizedRMSD -1
REMARK  0 active torsions:
REMARK  status: ('A' for Active; 'I' for Inactive)
ROOT
ATOM      1  C   UNL d   1      -0.405   1.277   2.855  0.00  0.00     0.172 C 
ATOM      2  N   UNL d   1       0.065   0.482   1.744  0.00  0.00    -0.070 N 
ATOM      3  C1  UNL d   1       1.269  -0.166   1.680  0.00  0.00    -0.004 A 
ATOM      4  C2  UNL d   1       1.338  -0.809   0.463  0.00  0.00    -0.047 A 
ATOM      5  C3  UNL d   1       0.133  -0.537  -0.228  0.00  0.00    -0.047 A 
ATOM      6  C4  UNL d   1      -0.637   0.264   0.588  0.00  0.00    -0.004 A 
ENDROOT
TORSDOF 0
ENDMDL
