MODEL 1
REMARK minimizedAffinity -2.81390476
REMARK minimizedRMSD -1
REMARK  0 active torsions:
REMARK  status: ('A' for Active; 'I' for Inactive)
ROOT
ATOM      1  C   UNL d   1      -0.443  -0.637   0.319  0.00  0.00     0.172 C 
ATOM      2  N   UNL d   1       0.167  -0.565  -0.988  0.00  0.00    -0.070 N 
ATOM      3  C1  UNL d   1       0.193  -1.575  -1.913  0.00  0.00    -0.004 A 
ATOM      4  C2  UNL d   1       0.865  -1.112  -3.023  0.00  0.00    -0.047 A 
ATOM      5  C3  UNL d   1       1.257   0.221  -2.756  0.00  0.00    -0.047 A 
ATOM      6  C4  UNL d   1       0.812   0.534  -1.489  0.00  0.00    -0.004 A 
ENDROOT
TORSDOF 0
ENDMDL
