MODEL 1
REMARK minimizedAffinity -3.94723368
REMARK minimizedRMSD -1
REMARK  0 active torsions:
REMARK  status: ('A' for Active; 'I' for Inactive)
ROOT
ATOM      1  C   UNL d   1       0.138   0.302  -0.700  0.00  0.00     0.172 C 
ATOM      2  N   UNL d   1       0.082   0.021   0.716  0.00  0.00    -0.070 N 
ATOM      3  C1  UNL d   1      -0.769  -0.866   1.320  0.00  0.00    -0.004 A 
ATOM      4  C2  UNL d   1      -0.509  -0.845   2.673  0.00  0.00    -0.047 A 
ATOM      5  C3  UNL d   1       0.533   0.088   2.890  0.00  0.00    -0.047 A 
ATOM      6  C4  UNL d   1       0.880   0.609   1.661  0.00  0.00    -0.004 A 
ENDROOT
TORSDOF 0
ENDMDL
