MODEL 1
REMARK minimizedAffinity -3.9514935
REMARK minimizedRMSD -1
REMARK  0 active torsions:
REMARK  status: ('A' for Active; 'I' for Inactive)
ROOT
ATOM      1  C   UNL d   1       0.109  -0.225  -0.599  0.00  0.00     0.172 C 
ATOM      2  N   UNL d   1       0.049  -0.202   0.844  0.00  0.00    -0.070 N 
ATOM      3  C1  UNL d   1      -1.079  -0.383   1.598  0.00  0.00    -0.004 A 
ATOM      4  C2  UNL d   1      -0.719  -0.289   2.925  0.00  0.00    -0.047 A 
ATOM      5  C3  UNL d   1       0.674  -0.041   2.969  0.00  0.00    -0.047 A 
ATOM      6  C4  UNL d   1       1.123   0.009   1.667  0.00  0.00    -0.004 A 
ENDROOT
TORSDOF 0
ENDMDL
