MODEL 1
REMARK minimizedAffinity -4.05044651
REMARK minimizedRMSD -1
REMARK  0 active torsions:
REMARK  status: ('A' for Active; 'I' for Inactive)
ROOT
ATOM      1  C   UNL d   1       1.029   0.007   1.221  0.00  0.00     0.172 C 
ATOM      2  N   UNL d   1      -0.299  -0.156   1.763  0.00  0.00    -0.070 N 
ATOM      3  C1  UNL d   1      -0.601  -0.395   3.077  0.00  0.00    -0.004 A 
ATOM      4  C2  UNL d   1      -1.972  -0.487   3.186  0.00  0.00    -0.047 A 
ATOM      5  C3  UNL d   1      -2.513  -0.297   1.892  0.00  0.00    -0.047 A 
ATOM      6  C4  UNL d   1      -1.455  -0.095   1.030  0.00  0.00    -0.004 A 
ENDROOT
TORSDOF 0
ENDMDL
