MODEL 1
REMARK minimizedAffinity -1.50307226
REMARK minimizedRMSD -1
REMARK  0 active torsions:
REMARK  status: ('A' for Active; 'I' for Inactive)
ROOT
ATOM      1  C   UNL d   1       0.528  -0.027  -2.004  0.00  0.00     0.172 C 
ATOM      2  N   UNL d   1      -0.442  -0.021  -0.934  0.00  0.00    -0.070 N 
ATOM      3  C1  UNL d   1      -1.769   0.292  -1.061  0.00  0.00    -0.004 A 
ATOM      4  C2  UNL d   1      -2.350   0.179   0.183  0.00  0.00    -0.047 A 
ATOM      5  C3  UNL d   1      -1.337  -0.213   1.090  0.00  0.00    -0.047 A 
ATOM      6  C4  UNL d   1      -0.166  -0.330   0.372  0.00  0.00    -0.004 A 
ENDROOT
TORSDOF 0
ENDMDL
