MODEL 1
REMARK minimizedAffinity 0.320829093
REMARK minimizedRMSD -1
REMARK  0 active torsions:
REMARK  status: ('A' for Active; 'I' for Inactive)
ROOT
ATOM      1  C   UNL d   1      -0.060   0.677  -1.516  0.00  0.00     0.172 C 
ATOM      2  N   UNL d   1       0.517  -0.200  -2.507  0.00  0.00    -0.070 N 
ATOM      3  C1  UNL d   1      -0.146  -1.191  -3.180  0.00  0.00    -0.004 A 
ATOM      4  C2  UNL d   1       0.751  -1.796  -4.034  0.00  0.00    -0.047 A 
ATOM      5  C3  UNL d   1       1.998  -1.146  -3.867  0.00  0.00    -0.047 A 
ATOM      6  C4  UNL d   1       1.824  -0.162  -2.917  0.00  0.00    -0.004 A 
ENDROOT
TORSDOF 0
ENDMDL
