MODEL 1
REMARK minimizedAffinity -2.86005831
REMARK minimizedRMSD -1
REMARK  0 active torsions:
REMARK  status: ('A' for Active; 'I' for Inactive)
ROOT
ATOM      1  C   UNL d   1       0.217   0.263  -1.317  0.00  0.00     0.172 C 
ATOM      2  N   UNL d   1       0.079  -0.059   0.084  0.00  0.00    -0.070 N 
ATOM      3  C1  UNL d   1       0.975   0.262   1.068  0.00  0.00    -0.004 A 
ATOM      4  C2  UNL d   1       0.481  -0.219   2.262  0.00  0.00    -0.047 A 
ATOM      5  C3  UNL d   1      -0.754  -0.851   1.984  0.00  0.00    -0.047 A 
ATOM      6  C4  UNL d   1      -0.979  -0.738   0.628  0.00  0.00    -0.004 A 
ENDROOT
TORSDOF 0
ENDMDL
