MODEL 1
REMARK minimizedAffinity -2.53128362
REMARK minimizedRMSD -1
REMARK  0 active torsions:
REMARK  status: ('A' for Active; 'I' for Inactive)
ROOT
ATOM      1  C   UNL d   1       0.717   0.436  -1.071  0.00  0.00     0.172 C 
ATOM      2  N   UNL d   1       0.580   0.493   0.365  0.00  0.00    -0.070 N 
ATOM      3  C1  UNL d   1      -0.602   0.550   1.053  0.00  0.00    -0.004 A 
ATOM      4  C2  UNL d   1      -0.307   0.591   2.398  0.00  0.00    -0.047 A 
ATOM      5  C3  UNL d   1       1.103   0.558   2.523  0.00  0.00    -0.047 A 
ATOM      6  C4  UNL d   1       1.627   0.498   1.249  0.00  0.00    -0.004 A 
ENDROOT
TORSDOF 0
ENDMDL
