MODEL 1
REMARK minimizedAffinity -2.43468571
REMARK minimizedRMSD -1
REMARK  0 active torsions:
REMARK  status: ('A' for Active; 'I' for Inactive)
ROOT
ATOM      1  C   UNL d   1       0.085  -0.049  -0.639  0.00  0.00     0.172 C 
ATOM      2  N   UNL d   1      -0.017   0.061   0.798  0.00  0.00    -0.070 N 
ATOM      3  C1  UNL d   1       0.908   0.646   1.621  0.00  0.00    -0.004 A 
ATOM      4  C2  UNL d   1       0.443   0.547   2.915  0.00  0.00    -0.047 A 
ATOM      5  C3  UNL d   1      -0.803  -0.121   2.867  0.00  0.00    -0.047 A 
ATOM      6  C4  UNL d   1      -1.064  -0.410   1.545  0.00  0.00    -0.004 A 
ENDROOT
TORSDOF 0
ENDMDL
