MODEL 1
REMARK minimizedAffinity -1.15727019
REMARK minimizedRMSD -1
REMARK  0 active torsions:
REMARK  status: ('A' for Active; 'I' for Inactive)
ROOT
ATOM      1  C   UNL d   1      -0.260   0.037  -0.767  0.00  0.00     0.172 C 
ATOM      2  N   UNL d   1       0.198  -0.536  -2.011  0.00  0.00    -0.070 N 
ATOM      3  C1  UNL d   1       1.017   0.079  -2.920  0.00  0.00    -0.004 A 
ATOM      4  C2  UNL d   1       1.218  -0.795  -3.966  0.00  0.00    -0.047 A 
ATOM      5  C3  UNL d   1       0.493  -1.975  -3.677  0.00  0.00    -0.047 A 
ATOM      6  C4  UNL d   1      -0.129  -1.788  -2.461  0.00  0.00    -0.004 A 
ENDROOT
TORSDOF 0
ENDMDL
