MODEL 1
REMARK minimizedAffinity -4.10638094
REMARK minimizedRMSD -1
REMARK  0 active torsions:
REMARK  status: ('A' for Active; 'I' for Inactive)
ROOT
ATOM      1  C   UNL d   1       0.276   0.464  -0.868  0.00  0.00     0.172 C 
ATOM      2  N   UNL d   1       0.368   0.058   0.515  0.00  0.00    -0.070 N 
ATOM      3  C1  UNL d   1       1.404   0.343   1.363  0.00  0.00    -0.004 A 
ATOM      4  C2  UNL d   1       1.114  -0.218   2.588  0.00  0.00    -0.047 A 
ATOM      5  C3  UNL d   1      -0.140  -0.864   2.471  0.00  0.00    -0.047 A 
ATOM      6  C4  UNL d   1      -0.579  -0.677   1.178  0.00  0.00    -0.004 A 
ENDROOT
TORSDOF 0
ENDMDL
