MODEL 1
REMARK minimizedAffinity -2.68874884
REMARK minimizedRMSD -1
REMARK  0 active torsions:
REMARK  status: ('A' for Active; 'I' for Inactive)
ROOT
ATOM      1  C   UNL d   1       1.009  -0.057   1.214  0.00  0.00     0.172 C 
ATOM      2  N   UNL d   1      -0.362  -0.177   1.651  0.00  0.00    -0.070 N 
ATOM      3  C1  UNL d   1      -0.811   0.011   2.931  0.00  0.00    -0.004 A 
ATOM      4  C2  UNL d   1      -2.174  -0.194   2.934  0.00  0.00    -0.047 A 
ATOM      5  C3  UNL d   1      -2.557  -0.517   1.611  0.00  0.00    -0.047 A 
ATOM      6  C4  UNL d   1      -1.415  -0.500   0.837  0.00  0.00    -0.004 A 
ENDROOT
TORSDOF 0
ENDMDL
