MODEL 1
REMARK minimizedAffinity -2.07873201
REMARK minimizedRMSD -1
REMARK  0 active torsions:
REMARK  status: ('A' for Active; 'I' for Inactive)
ROOT
ATOM      1  C   UNL d   1       0.563  -0.027  -0.863  0.00  0.00     0.172 C 
ATOM      2  N   UNL d   1       0.306   0.243   0.532  0.00  0.00    -0.070 N 
ATOM      3  C1  UNL d   1      -0.912   0.154   1.152  0.00  0.00    -0.004 A 
ATOM      4  C2  UNL d   1      -0.738   0.489   2.477  0.00  0.00    -0.047 A 
ATOM      5  C3  UNL d   1       0.633   0.791   2.660  0.00  0.00    -0.047 A 
ATOM      6  C4  UNL d   1       1.255   0.630   1.441  0.00  0.00    -0.004 A 
ENDROOT
TORSDOF 0
ENDMDL
