MODEL 1
REMARK minimizedAffinity -2.91905212
REMARK minimizedRMSD -1
REMARK  0 active torsions:
REMARK  status: ('A' for Active; 'I' for Inactive)
ROOT
ATOM      1  C   UNL d   1      -0.302   0.457  -0.862  0.00  0.00     0.172 C 
ATOM      2  N   UNL d   1       0.425  -0.231  -1.903  0.00  0.00    -0.070 N 
ATOM      3  C1  UNL d   1       1.528   0.249  -2.557  0.00  0.00    -0.004 A 
ATOM      4  C2  UNL d   1       1.923  -0.703  -3.472  0.00  0.00    -0.047 A 
ATOM      5  C3  UNL d   1       1.026  -1.792  -3.365  0.00  0.00    -0.047 A 
ATOM      6  C4  UNL d   1       0.109  -1.473  -2.386  0.00  0.00    -0.004 A 
ENDROOT
TORSDOF 0
ENDMDL
