MODEL 1
REMARK minimizedAffinity -3.66678309
REMARK minimizedRMSD -1
REMARK  0 active torsions:
REMARK  status: ('A' for Active; 'I' for Inactive)
ROOT
ATOM      1  C   UNL d   1      -0.372  -0.669  -0.694  0.00  0.00     0.020 A 
ATOM      2  C1  UNL d   1      -0.603   0.706  -0.676  0.00  0.00     0.020 A 
ATOM      3  C2  UNL d   1       0.338   1.564  -0.102  0.00  0.00     0.034 A 
ATOM      4  C3  UNL d   1       1.513   1.048   0.455  0.00  0.00     0.017 A 
ATOM      5  C4  UNL d   1       1.744  -0.332   0.436  0.00  0.00     0.017 A 
ATOM      6  C5  UNL d   1       0.799  -1.187  -0.140  0.00  0.00     0.034 A 
ATOM      7 Cl   UNL d   1       3.171  -1.042   1.103  0.00  0.00    -0.070 Cl
ATOM      8 Cl1  UNL d   1       2.633   2.168   1.146  0.00  0.00    -0.070 Cl
ENDROOT
TORSDOF 0
ENDMDL
