MODEL 1
REMARK minimizedAffinity 0.571774244
REMARK minimizedRMSD -1
REMARK  0 active torsions:
REMARK  status: ('A' for Active; 'I' for Inactive)
ROOT
ATOM      1  C   UNL d   1       0.066  -2.382  -0.476  0.00  0.00     0.020 A 
ATOM      2  C1  UNL d   1       1.368  -1.925  -0.278  0.00  0.00     0.020 A 
ATOM      3  C2  UNL d   1       1.601  -0.574  -0.014  0.00  0.00     0.034 A 
ATOM      4  C3  UNL d   1       0.530   0.325   0.052  0.00  0.00     0.017 A 
ATOM      5  C4  UNL d   1      -0.776  -0.134  -0.147  0.00  0.00     0.017 A 
ATOM      6  C5  UNL d   1      -1.004  -1.489  -0.411  0.00  0.00     0.034 A 
ATOM      7 Cl   UNL d   1      -2.148   0.915  -0.081  0.00  0.00    -0.070 Cl
ATOM      8 Cl1  UNL d   1       0.892   1.982   0.382  0.00  0.00    -0.070 Cl
ENDROOT
TORSDOF 0
ENDMDL
