MODEL 1
REMARK minimizedAffinity -3.56365609
REMARK minimizedRMSD -1
REMARK  0 active torsions:
REMARK  status: ('A' for Active; 'I' for Inactive)
ROOT
ATOM      1  C   UNL d   1       2.234  -1.159   0.897  0.00  0.00     0.020 A 
ATOM      2  C1  UNL d   1       1.824   0.109   1.307  0.00  0.00     0.020 A 
ATOM      3  C2  UNL d   1       0.658   0.670   0.782  0.00  0.00     0.034 A 
ATOM      4  C3  UNL d   1      -0.103  -0.037  -0.156  0.00  0.00     0.017 A 
ATOM      5  C4  UNL d   1       0.309  -1.310  -0.567  0.00  0.00     0.017 A 
ATOM      6  C5  UNL d   1       1.478  -1.867  -0.038  0.00  0.00     0.034 A 
ATOM      7 Cl   UNL d   1      -0.577  -2.243  -1.721  0.00  0.00    -0.070 Cl
ATOM      8 Cl1  UNL d   1      -1.534   0.717  -0.763  0.00  0.00    -0.070 Cl
ENDROOT
TORSDOF 0
ENDMDL
