MODEL 1
REMARK minimizedAffinity -1.13682544
REMARK minimizedRMSD -1
REMARK  0 active torsions:
REMARK  status: ('A' for Active; 'I' for Inactive)
ROOT
ATOM      1  C   UNL d   1      -0.400  -2.180   0.267  0.00  0.00     0.020 A 
ATOM      2  C1  UNL d   1       0.381  -1.665  -0.766  0.00  0.00     0.020 A 
ATOM      3  C2  UNL d   1       0.304  -0.309  -1.091  0.00  0.00     0.034 A 
ATOM      4  C3  UNL d   1      -0.556   0.537  -0.381  0.00  0.00     0.017 A 
ATOM      5  C4  UNL d   1      -1.340   0.019   0.657  0.00  0.00     0.017 A 
ATOM      6  C5  UNL d   1      -1.259  -1.340   0.977  0.00  0.00     0.034 A 
ATOM      7 Cl   UNL d   1      -2.425   1.000   1.578  0.00  0.00    -0.070 Cl
ATOM      8 Cl1  UNL d   1      -0.600   2.203  -0.835  0.00  0.00    -0.070 Cl
ENDROOT
TORSDOF 0
ENDMDL
