MODEL 1
REMARK minimizedAffinity -3.08234358
REMARK minimizedRMSD -1
REMARK  0 active torsions:
REMARK  status: ('A' for Active; 'I' for Inactive)
ROOT
ATOM      1  C   UNL d   1      -1.219   1.066   0.060  0.00  0.00     0.020 A 
ATOM      2  C1  UNL d   1      -0.046   1.413   0.730  0.00  0.00     0.020 A 
ATOM      3  C2  UNL d   1       1.055   0.554   0.701  0.00  0.00     0.034 A 
ATOM      4  C3  UNL d   1       0.985  -0.656   0.001  0.00  0.00     0.017 A 
ATOM      5  C4  UNL d   1      -0.192  -1.003  -0.671  0.00  0.00     0.017 A 
ATOM      6  C5  UNL d   1      -1.292  -0.139  -0.639  0.00  0.00     0.034 A 
ATOM      7 Cl   UNL d   1      -0.354  -2.479  -1.556  0.00  0.00    -0.070 Cl
ATOM      8 Cl1  UNL d   1       2.385  -1.669   0.007  0.00  0.00    -0.070 Cl
ENDROOT
TORSDOF 0
ENDMDL
