MODEL 1
REMARK minimizedAffinity -0.501236498
REMARK minimizedRMSD -1
REMARK  0 active torsions:
REMARK  status: ('A' for Active; 'I' for Inactive)
ROOT
ATOM      1  C   UNL d   1       1.018  -6.000  -4.553  0.00  0.00     0.023 A 
ATOM      2  C1  UNL d   1       0.068  -5.999  -5.574  0.00  0.00     0.003 A 
ATOM      3  C2  UNL d   1      -1.293  -5.999  -5.264  0.00  0.00     0.048 A 
ATOM      4  C3  UNL d   1      -1.698  -5.999  -3.929  0.00  0.00     0.023 A 
ATOM      5  C4  UNL d   1      -0.751  -5.999  -2.904  0.00  0.00     0.048 A 
ATOM      6  C5  UNL d   1       0.609  -6.000  -3.219  0.00  0.00     0.003 A 
ATOM      7  I   UNL d   1      -3.724  -5.998  -3.465  0.00  0.00    -0.146 I 
ENDROOT
TORSDOF 0
ENDMDL
