MODEL 1
REMARK minimizedAffinity 2.89974833
REMARK minimizedRMSD -1
REMARK  0 active torsions:
REMARK  status: ('A' for Active; 'I' for Inactive)
ROOT
ATOM      1  C   UNL d   1      -1.272  -1.649   1.095  0.00  0.00     0.023 A 
ATOM      2  C1  UNL d   1      -0.107  -2.296   0.683  0.00  0.00     0.003 A 
ATOM      3  C2  UNL d   1       0.963  -1.554   0.177  0.00  0.00     0.048 A 
ATOM      4  C3  UNL d   1       0.861  -0.166   0.088  0.00  0.00     0.023 A 
ATOM      5  C4  UNL d   1      -0.303   0.485   0.500  0.00  0.00     0.048 A 
ATOM      6  C5  UNL d   1      -1.370  -0.261   1.004  0.00  0.00     0.003 A 
ATOM      7  I   UNL d   1       2.452   0.940  -0.664  0.00  0.00    -0.146 I 
ENDROOT
TORSDOF 0
ENDMDL
