MODEL 1
REMARK minimizedAffinity -0.580545485
REMARK minimizedRMSD -1
REMARK  0 active torsions:
REMARK  status: ('A' for Active; 'I' for Inactive)
ROOT
ATOM      1  C   UNL d   1       0.487  -5.995  -5.279  0.00  0.00     0.023 A 
ATOM      2  C1  UNL d   1       0.511  -5.998  -3.884  0.00  0.00     0.003 A 
ATOM      3  C2  UNL d   1      -0.684  -5.999  -3.163  0.00  0.00     0.048 A 
ATOM      4  C3  UNL d   1      -1.902  -5.998  -3.843  0.00  0.00     0.023 A 
ATOM      5  C4  UNL d   1      -1.931  -5.995  -5.239  0.00  0.00     0.048 A 
ATOM      6  C5  UNL d   1      -0.733  -5.994  -5.955  0.00  0.00     0.003 A 
ATOM      7  I   UNL d   1      -3.683  -5.999  -2.773  0.00  0.00    -0.146 I 
ENDROOT
TORSDOF 0
ENDMDL
