MODEL 1
REMARK minimizedAffinity 6.18655252
REMARK minimizedRMSD -1
REMARK  0 active torsions:
REMARK  status: ('A' for Active; 'I' for Inactive)
ROOT
ATOM      1  C   UNL d   1       1.089  -4.701  -5.898  0.00  0.00     0.023 A 
ATOM      2  C1  UNL d   1       0.048  -5.624  -6.000  0.00  0.00     0.003 A 
ATOM      3  C2  UNL d   1      -0.670  -5.996  -4.862  0.00  0.00     0.048 A 
ATOM      4  C3  UNL d   1      -0.341  -5.442  -3.625  0.00  0.00     0.023 A 
ATOM      5  C4  UNL d   1       0.700  -4.519  -3.518  0.00  0.00     0.048 A 
ATOM      6  C5  UNL d   1       1.415  -4.150  -4.659  0.00  0.00     0.003 A 
ATOM      7  I   UNL d   1      -1.408  -5.995  -1.929  0.00  0.00    -0.146 I 
ENDROOT
TORSDOF 0
ENDMDL
