MODEL 1
REMARK minimizedAffinity 1.15221751
REMARK minimizedRMSD -1
REMARK  0 active torsions:
REMARK  status: ('A' for Active; 'I' for Inactive)
ROOT
ATOM      1  C   UNL d   1       0.253  -5.992  -5.482  0.00  0.00     0.023 A 
ATOM      2  C1  UNL d   1       0.679  -5.996  -4.154  0.00  0.00     0.003 A 
ATOM      3  C2  UNL d   1      -0.258  -5.997  -3.118  0.00  0.00     0.048 A 
ATOM      4  C3  UNL d   1      -1.620  -5.996  -3.418  0.00  0.00     0.023 A 
ATOM      5  C4  UNL d   1      -2.051  -5.993  -4.746  0.00  0.00     0.048 A 
ATOM      6  C5  UNL d   1      -1.110  -5.991  -5.778  0.00  0.00     0.003 A 
ATOM      7  I   UNL d   1      -3.016  -5.998  -1.879  0.00  0.00    -0.146 I 
ENDROOT
TORSDOF 0
ENDMDL
