MODEL 1
REMARK minimizedAffinity 0.943038762
REMARK minimizedRMSD -1
REMARK  0 active torsions:
REMARK  status: ('A' for Active; 'I' for Inactive)
ROOT
ATOM      1  C   UNL d   1      -5.626  -5.991  -0.526  0.00  0.00     0.023 A 
ATOM      2  C1  UNL d   1      -4.421  -5.996   0.177  0.00  0.00     0.003 A 
ATOM      3  C2  UNL d   1      -3.208  -5.999  -0.514  0.00  0.00     0.048 A 
ATOM      4  C3  UNL d   1      -3.206  -5.996  -1.909  0.00  0.00     0.023 A 
ATOM      5  C4  UNL d   1      -4.409  -5.990  -2.617  0.00  0.00     0.048 A 
ATOM      6  C5  UNL d   1      -5.620  -5.988  -1.921  0.00  0.00     0.003 A 
ATOM      7  I   UNL d   1      -1.402  -6.000  -2.939  0.00  0.00    -0.146 I 
ENDROOT
TORSDOF 0
ENDMDL
