MODEL 1
REMARK minimizedAffinity 6.41876984
REMARK minimizedRMSD -1
REMARK  0 active torsions:
REMARK  status: ('A' for Active; 'I' for Inactive)
ROOT
ATOM      1  C   UNL d   1      -5.178  -4.186   4.825  0.00  0.00     0.023 A 
ATOM      2  C1  UNL d   1      -4.709  -5.478   4.588  0.00  0.00     0.003 A 
ATOM      3  C2  UNL d   1      -4.718  -5.998   3.292  0.00  0.00     0.048 A 
ATOM      4  C3  UNL d   1      -5.197  -5.221   2.238  0.00  0.00     0.023 A 
ATOM      5  C4  UNL d   1      -5.667  -3.928   2.471  0.00  0.00     0.048 A 
ATOM      6  C5  UNL d   1      -5.657  -3.412   3.768  0.00  0.00     0.003 A 
ATOM      7  I   UNL d   1      -5.212  -5.994   0.309  0.00  0.00    -0.146 I 
ENDROOT
TORSDOF 0
ENDMDL
