MODEL 1
REMARK minimizedAffinity 0.0896798223
REMARK minimizedRMSD -1
REMARK  0 active torsions:
REMARK  status: ('A' for Active; 'I' for Inactive)
ROOT
ATOM      1  C   UNL d   1       0.607  -5.950  -5.012  0.00  0.00     0.023 A 
ATOM      2  C1  UNL d   1       0.443  -5.982  -3.627  0.00  0.00     0.003 A 
ATOM      3  C2  UNL d   1      -0.839  -5.995  -3.075  0.00  0.00     0.048 A 
ATOM      4  C3  UNL d   1      -1.953  -5.979  -3.913  0.00  0.00     0.023 A 
ATOM      5  C4  UNL d   1      -1.794  -5.948  -5.299  0.00  0.00     0.048 A 
ATOM      6  C5  UNL d   1      -0.510  -5.933  -5.847  0.00  0.00     0.003 A 
ATOM      7  I   UNL d   1      -3.863  -6.000  -3.093  0.00  0.00    -0.146 I 
ENDROOT
TORSDOF 0
ENDMDL
