MODEL 1
REMARK minimizedAffinity 5.51871014
REMARK minimizedRMSD -1
REMARK  0 active torsions:
REMARK  status: ('A' for Active; 'I' for Inactive)
ROOT
ATOM      1  C   UNL d   1      -0.395  -1.951   1.468  0.00  0.00     0.023 A 
ATOM      2  C1  UNL d   1       0.801  -2.616   1.200  0.00  0.00     0.003 A 
ATOM      3  C2  UNL d   1       1.819  -1.969   0.496  0.00  0.00     0.048 A 
ATOM      4  C3  UNL d   1       1.634  -0.656   0.065  0.00  0.00     0.023 A 
ATOM      5  C4  UNL d   1       0.438   0.014   0.332  0.00  0.00     0.048 A 
ATOM      6  C5  UNL d   1      -0.577  -0.638   1.034  0.00  0.00     0.003 A 
ATOM      7  I   UNL d   1       3.147   0.310  -0.982  0.00  0.00    -0.146 I 
ENDROOT
TORSDOF 0
ENDMDL
