MODEL 1
REMARK minimizedAffinity -0.844141185
REMARK minimizedRMSD -1
REMARK  0 active torsions:
REMARK  status: ('A' for Active; 'I' for Inactive)
ROOT
ATOM      1  C   UNL d   1       0.359  -5.921  -5.399  0.00  0.00     0.023 A 
ATOM      2  C1  UNL d   1       0.469  -5.983  -4.010  0.00  0.00     0.003 A 
ATOM      3  C2  UNL d   1      -0.680  -6.000  -3.217  0.00  0.00     0.048 A 
ATOM      4  C3  UNL d   1      -1.937  -5.955  -3.820  0.00  0.00     0.023 A 
ATOM      5  C4  UNL d   1      -2.052  -5.894  -5.209  0.00  0.00     0.048 A 
ATOM      6  C5  UNL d   1      -0.900  -5.877  -5.998  0.00  0.00     0.003 A 
ATOM      7  I   UNL d   1      -3.649  -5.980  -2.642  0.00  0.00    -0.146 I 
ENDROOT
TORSDOF 0
ENDMDL
