MODEL 1
REMARK minimizedAffinity 0.0737654045
REMARK minimizedRMSD -1
REMARK  0 active torsions:
REMARK  status: ('A' for Active; 'I' for Inactive)
ROOT
ATOM      1  C   UNL d   1       0.761  -3.178   1.326  0.00  0.00     0.023 A 
ATOM      2  C1  UNL d   1      -0.250  -2.417   0.740  0.00  0.00     0.003 A 
ATOM      3  C2  UNL d   1       0.001  -1.099   0.353  0.00  0.00     0.048 A 
ATOM      4  C3  UNL d   1       1.267  -0.549   0.554  0.00  0.00     0.023 A 
ATOM      5  C4  UNL d   1       2.282  -1.308   1.139  0.00  0.00     0.048 A 
ATOM      6  C5  UNL d   1       2.025  -2.624   1.526  0.00  0.00     0.003 A 
ATOM      7  I   UNL d   1       1.645   1.412  -0.022  0.00  0.00    -0.146 I 
ENDROOT
TORSDOF 0
ENDMDL
