MODEL 1
REMARK minimizedAffinity 0.189139053
REMARK minimizedRMSD -1
REMARK  0 active torsions:
REMARK  status: ('A' for Active; 'I' for Inactive)
ROOT
ATOM      1  C   UNL d   1      -0.025  -3.531   1.150  0.00  0.00     0.023 A 
ATOM      2  C1  UNL d   1      -0.833  -2.962   0.165  0.00  0.00     0.003 A 
ATOM      3  C2  UNL d   1      -0.639  -1.633  -0.217  0.00  0.00     0.048 A 
ATOM      4  C3  UNL d   1       0.366  -0.879   0.388  0.00  0.00     0.023 A 
ATOM      5  C4  UNL d   1       1.177  -1.445   1.373  0.00  0.00     0.048 A 
ATOM      6  C5  UNL d   1       0.979  -2.774   1.753  0.00  0.00     0.003 A 
ATOM      7  I   UNL d   1       0.657   1.099  -0.179  0.00  0.00    -0.146 I 
ENDROOT
TORSDOF 0
ENDMDL
