MODEL 1
REMARK minimizedAffinity 0.200343713
REMARK minimizedRMSD -1
REMARK  0 active torsions:
REMARK  status: ('A' for Active; 'I' for Inactive)
ROOT
ATOM      1  C   UNL d   1       1.411  -5.759  -5.137  0.00  0.00     0.023 A 
ATOM      2  C1  UNL d   1       0.326  -5.927  -5.998  0.00  0.00     0.003 A 
ATOM      3  C2  UNL d   1      -0.971  -5.997  -5.484  0.00  0.00     0.048 A 
ATOM      4  C3  UNL d   1      -1.176  -5.896  -4.109  0.00  0.00     0.023 A 
ATOM      5  C4  UNL d   1      -0.093  -5.727  -3.244  0.00  0.00     0.048 A 
ATOM      6  C5  UNL d   1       1.201  -5.659  -3.762  0.00  0.00     0.003 A 
ATOM      7  I   UNL d   1      -3.104  -5.999  -3.342  0.00  0.00    -0.146 I 
ENDROOT
TORSDOF 0
ENDMDL
