MODEL 1
REMARK minimizedAffinity -2.41841793
REMARK minimizedRMSD -1
REMARK  0 active torsions:
REMARK  status: ('A' for Active; 'I' for Inactive)
ROOT
ATOM      1  C   UNL d   1       0.375  -5.360  -5.629  0.00  0.00     0.023 A 
ATOM      2  C1  UNL d   1       0.719  -5.627  -4.304  0.00  0.00     0.003 A 
ATOM      3  C2  UNL d   1      -0.279  -5.810  -3.345  0.00  0.00     0.048 A 
ATOM      4  C3  UNL d   1      -1.620  -5.726  -3.718  0.00  0.00     0.023 A 
ATOM      5  C4  UNL d   1      -1.969  -5.459  -5.043  0.00  0.00     0.048 A 
ATOM      6  C5  UNL d   1      -0.968  -5.276  -5.998  0.00  0.00     0.003 A 
ATOM      7  I   UNL d   1      -3.107  -5.998  -2.292  0.00  0.00    -0.146 I 
ENDROOT
TORSDOF 0
ENDMDL
