MODEL 1
REMARK minimizedAffinity 4.13509607
REMARK minimizedRMSD -1
REMARK  0 active torsions:
REMARK  status: ('A' for Active; 'I' for Inactive)
ROOT
ATOM      1  C   UNL d   1       1.278  -5.999  -4.661  0.00  0.00     0.023 A 
ATOM      2  C1  UNL d   1       0.063  -5.999  -5.346  0.00  0.00     0.003 A 
ATOM      3  C2  UNL d   1      -1.140  -5.999  -4.637  0.00  0.00     0.048 A 
ATOM      4  C3  UNL d   1      -1.120  -5.999  -3.243  0.00  0.00     0.023 A 
ATOM      5  C4  UNL d   1       0.093  -5.999  -2.553  0.00  0.00     0.048 A 
ATOM      6  C5  UNL d   1       1.293  -5.999  -3.266  0.00  0.00     0.003 A 
ATOM      7  I   UNL d   1      -2.910  -6.000  -2.185  0.00  0.00    -0.146 I 
ENDROOT
TORSDOF 0
ENDMDL
