MODEL 1
REMARK minimizedAffinity -4.22450447
REMARK minimizedRMSD -1
REMARK  1 active torsions:
REMARK  status: ('A' for Active; 'I' for Inactive)
REMARK    1  A    between atoms: N_2  and  C1_3 
ROOT
ATOM      1  C1  UNL d   1      -0.518  -0.058   0.685  0.00  0.00     0.143 A 
ATOM      2  C2  UNL d   1      -0.440   0.207   2.057  0.00  0.00    -0.057 A 
ATOM      3  C3  UNL d   1      -1.137   1.277   2.630  0.00  0.00     0.033 A 
ATOM      4  C4  UNL d   1      -1.904   2.122   1.835  0.00  0.00    -0.042 A 
ATOM      5  C5  UNL d   1      -1.975   1.893   0.465  0.00  0.00     0.033 A 
ATOM      6  C6  UNL d   1      -1.282   0.818  -0.101  0.00  0.00    -0.057 A 
ENDROOT
BRANCH   1   7
ATOM      7  N   UNL d   1       0.230  -1.046   0.041  0.00  0.00    -0.732 N 
ATOM      8  C   UNL d   1       0.826  -0.793  -1.253  0.00  0.00     0.284 C 
ATOM      9  H3  UNL d   1       0.830  -1.560   0.682  0.00  0.00     0.395 HD
ENDBRANCH   1   7
TORSDOF 1
ENDMDL
