MODEL 1
REMARK minimizedAffinity -4.71282005
REMARK minimizedRMSD -1
REMARK  1 active torsions:
REMARK  status: ('A' for Active; 'I' for Inactive)
REMARK    1  A    between atoms: N_2  and  C1_3 
ROOT
ATOM      1  C1  UNL d   1       0.152   0.175   0.114  0.00  0.00     0.143 A 
ATOM      2  C2  UNL d   1      -0.784   1.073  -0.409  0.00  0.00    -0.057 A 
ATOM      3  C3  UNL d   1      -1.783   1.632   0.398  0.00  0.00     0.033 A 
ATOM      4  C4  UNL d   1      -1.881   1.278   1.740  0.00  0.00    -0.042 A 
ATOM      5  C5  UNL d   1      -0.976   0.367   2.274  0.00  0.00     0.033 A 
ATOM      6  C6  UNL d   1       0.023  -0.182   1.465  0.00  0.00    -0.057 A 
ENDROOT
BRANCH   1   7
ATOM      7  N   UNL d   1       1.108  -0.490  -0.659  0.00  0.00    -0.732 N 
ATOM      8  C   UNL d   1       0.777  -1.722  -1.341  0.00  0.00     0.284 C 
ATOM      9  H3  UNL d   1       1.676   0.150  -1.209  0.00  0.00     0.395 HD
ENDBRANCH   1   7
TORSDOF 1
ENDMDL
