MODEL 1
REMARK minimizedAffinity -4.73556519
REMARK minimizedRMSD -1
REMARK  1 active torsions:
REMARK  status: ('A' for Active; 'I' for Inactive)
REMARK    1  A    between atoms: N_2  and  C1_3 
ROOT
ATOM      1  C1  UNL d   1       0.036   1.022   0.163  0.00  0.00     0.143 A 
ATOM      2  C2  UNL d   1      -0.968   0.662   1.068  0.00  0.00    -0.057 A 
ATOM      3  C3  UNL d   1      -1.928   1.588   1.494  0.00  0.00     0.033 A 
ATOM      4  C4  UNL d   1      -1.883   2.903   1.043  0.00  0.00    -0.042 A 
ATOM      5  C5  UNL d   1      -0.879   3.290   0.163  0.00  0.00     0.033 A 
ATOM      6  C6  UNL d   1       0.073   2.359  -0.264  0.00  0.00    -0.057 A 
ENDROOT
BRANCH   1   7
ATOM      7  N   UNL d   1       1.077   0.174  -0.222  0.00  0.00    -0.732 N 
ATOM      8  C   UNL d   1       0.797  -1.130  -0.783  0.00  0.00     0.284 C 
ATOM      9  H3  UNL d   1       1.833   0.673  -0.686  0.00  0.00     0.395 HD
ENDBRANCH   1   7
TORSDOF 1
ENDMDL
