MODEL 1
REMARK minimizedAffinity -2.34508872
REMARK minimizedRMSD -1
REMARK  1 active torsions:
REMARK  status: ('A' for Active; 'I' for Inactive)
REMARK    1  A    between atoms: N_2  and  C1_3 
ROOT
ATOM      1  C1  UNL d   1       0.258  -0.280   0.100  0.00  0.00     0.143 A 
ATOM      2  C2  UNL d   1      -0.574  -0.685   1.149  0.00  0.00    -0.057 A 
ATOM      3  C3  UNL d   1      -1.307   0.246   1.895  0.00  0.00     0.033 A 
ATOM      4  C4  UNL d   1      -1.198   1.605   1.623  0.00  0.00    -0.042 A 
ATOM      5  C5  UNL d   1      -0.358   2.033   0.601  0.00  0.00     0.033 A 
ATOM      6  C6  UNL d   1       0.366   1.098  -0.145  0.00  0.00    -0.057 A 
ENDROOT
BRANCH   1   7
ATOM      7  N   UNL d   1       1.088  -1.147  -0.614  0.00  0.00    -0.732 N 
ATOM      8  C   UNL d   1       0.533  -2.070  -1.581  0.00  0.00     0.284 C 
ATOM      9  H3  UNL d   1       1.951  -0.700  -0.915  0.00  0.00     0.395 HD
ENDBRANCH   1   7
TORSDOF 1
ENDMDL
