MODEL 1
REMARK minimizedAffinity 0.374551892
REMARK minimizedRMSD -1
REMARK  1 active torsions:
REMARK  status: ('A' for Active; 'I' for Inactive)
REMARK    1  A    between atoms: N_2  and  C1_3 
ROOT
ATOM      1  C1  UNL d   1      -0.429   1.220   1.109  0.00  0.00     0.143 A 
ATOM      2  C2  UNL d   1       0.328   1.694   0.032  0.00  0.00    -0.057 A 
ATOM      3  C3  UNL d   1       1.072   0.823  -0.771  0.00  0.00     0.033 A 
ATOM      4  C4  UNL d   1       1.096  -0.540  -0.494  0.00  0.00    -0.042 A 
ATOM      5  C5  UNL d   1       0.371  -1.031   0.586  0.00  0.00     0.033 A 
ATOM      6  C6  UNL d   1      -0.376  -0.156   1.381  0.00  0.00    -0.057 A 
ENDROOT
BRANCH   1   7
ATOM      7  N   UNL d   1      -1.112   2.047   2.004  0.00  0.00    -0.732 N 
ATOM      8  C   UNL d   1      -0.423   2.640   3.131  0.00  0.00     0.284 C 
ATOM      9  H3  UNL d   1      -1.760   2.675   1.536  0.00  0.00     0.395 HD
ENDBRANCH   1   7
TORSDOF 1
ENDMDL
