MODEL 1
REMARK minimizedAffinity -3.21113896
REMARK minimizedRMSD -1
REMARK  1 active torsions:
REMARK  status: ('A' for Active; 'I' for Inactive)
REMARK    1  A    between atoms: N_2  and  C1_3 
ROOT
ATOM      1  C1  UNL d   1       0.440  -0.201   0.217  0.00  0.00     0.143 A 
ATOM      2  C2  UNL d   1      -0.060  -0.872   1.339  0.00  0.00    -0.057 A 
ATOM      3  C3  UNL d   1      -0.886  -0.223   2.264  0.00  0.00     0.033 A 
ATOM      4  C4  UNL d   1      -1.204   1.121   2.099  0.00  0.00    -0.042 A 
ATOM      5  C5  UNL d   1      -0.698   1.814   1.006  0.00  0.00     0.033 A 
ATOM      6  C6  UNL d   1       0.121   1.159   0.081  0.00  0.00    -0.057 A 
ENDROOT
BRANCH   1   7
ATOM      7  N   UNL d   1       1.346  -0.764  -0.686  0.00  0.00    -0.732 N 
ATOM      8  C   UNL d   1       0.962  -1.891  -1.509  0.00  0.00     0.284 C 
ATOM      9  H3  UNL d   1       1.895  -0.060  -1.174  0.00  0.00     0.395 HD
ENDBRANCH   1   7
TORSDOF 1
ENDMDL
