MODEL 1
REMARK minimizedAffinity -5.10071898
REMARK minimizedRMSD -1
REMARK  1 active torsions:
REMARK  status: ('A' for Active; 'I' for Inactive)
REMARK    1  A    between atoms: N_2  and  C1_3 
ROOT
ATOM      1  C1  UNL d   1       0.043  -0.067   0.056  0.00  0.00     0.143 A 
ATOM      2  C2  UNL d   1      -0.876   0.670  -0.700  0.00  0.00    -0.057 A 
ATOM      3  C3  UNL d   1      -1.880   1.428  -0.085  0.00  0.00     0.033 A 
ATOM      4  C4  UNL d   1      -1.999   1.441   1.301  0.00  0.00    -0.042 A 
ATOM      5  C5  UNL d   1      -1.113   0.697   2.071  0.00  0.00     0.033 A 
ATOM      6  C6  UNL d   1      -0.109  -0.054   1.451  0.00  0.00    -0.057 A 
ENDROOT
BRANCH   1   7
ATOM      7  N   UNL d   1       1.001  -0.919  -0.500  0.00  0.00    -0.732 N 
ATOM      8  C   UNL d   1       0.603  -2.025  -1.343  0.00  0.00     0.284 C 
ATOM      9  H3  UNL d   1       1.821  -0.417  -0.832  0.00  0.00     0.395 HD
ENDBRANCH   1   7
TORSDOF 1
ENDMDL
