MODEL 1
REMARK minimizedAffinity -4.51290989
REMARK minimizedRMSD -1
REMARK  1 active torsions:
REMARK  status: ('A' for Active; 'I' for Inactive)
REMARK    1  A    between atoms: N_2  and  C1_3 
ROOT
ATOM      1  C1  UNL d   1      -0.127   0.902   0.033  0.00  0.00     0.143 A 
ATOM      2  C2  UNL d   1      -1.099   0.861   1.038  0.00  0.00    -0.057 A 
ATOM      3  C3  UNL d   1      -1.920   1.964   1.300  0.00  0.00     0.033 A 
ATOM      4  C4  UNL d   1      -1.764   3.142   0.577  0.00  0.00    -0.042 A 
ATOM      5  C5  UNL d   1      -0.787   3.214  -0.410  0.00  0.00     0.033 A 
ATOM      6  C6  UNL d   1       0.026   2.107  -0.671  0.00  0.00    -0.057 A 
ENDROOT
BRANCH   1   7
ATOM      7  N   UNL d   1       0.786  -0.127  -0.208  0.00  0.00    -0.732 N 
ATOM      8  C   UNL d   1       0.450  -1.218  -1.098  0.00  0.00     0.284 C 
ATOM      9  H3  UNL d   1       1.739   0.215  -0.311  0.00  0.00     0.395 HD
ENDBRANCH   1   7
TORSDOF 1
ENDMDL
