MODEL 1
REMARK minimizedAffinity -3.45665741
REMARK minimizedRMSD -1
REMARK  1 active torsions:
REMARK  status: ('A' for Active; 'I' for Inactive)
REMARK    1  A    between atoms: N_2  and  C1_3 
ROOT
ATOM      1  C1  UNL d   1      -0.044   0.111   0.196  0.00  0.00     0.143 A 
ATOM      2  C2  UNL d   1      -0.708   0.115   1.427  0.00  0.00    -0.057 A 
ATOM      3  C3  UNL d   1      -1.233   1.296   1.966  0.00  0.00     0.033 A 
ATOM      4  C4  UNL d   1      -1.077   2.503   1.294  0.00  0.00    -0.042 A 
ATOM      5  C5  UNL d   1      -0.398   2.528   0.080  0.00  0.00     0.033 A 
ATOM      6  C6  UNL d   1       0.118   1.344  -0.455  0.00  0.00    -0.057 A 
ENDROOT
BRANCH   1   7
ATOM      7  N   UNL d   1       0.586  -1.013  -0.345  0.00  0.00    -0.732 N 
ATOM      8  C   UNL d   1       0.149  -1.566  -1.609  0.00  0.00     0.284 C 
ATOM      9  H3  UNL d   1       1.596  -0.984  -0.231  0.00  0.00     0.395 HD
ENDBRANCH   1   7
TORSDOF 1
ENDMDL
