MODEL 1
REMARK minimizedAffinity -2.92750812
REMARK minimizedRMSD -1
REMARK  1 active torsions:
REMARK  status: ('A' for Active; 'I' for Inactive)
REMARK    1  A    between atoms: N_2  and  C1_3 
ROOT
ATOM      1  C1  UNL d   1      -0.047   0.574   0.341  0.00  0.00     0.143 A 
ATOM      2  C2  UNL d   1      -1.003   0.653   1.360  0.00  0.00    -0.057 A 
ATOM      3  C3  UNL d   1      -1.560   1.881   1.739  0.00  0.00     0.033 A 
ATOM      4  C4  UNL d   1      -1.149   3.058   1.123  0.00  0.00    -0.042 A 
ATOM      5  C5  UNL d   1      -0.182   3.006   0.126  0.00  0.00     0.033 A 
ATOM      6  C6  UNL d   1       0.366   1.777  -0.253  0.00  0.00    -0.057 A 
ENDROOT
BRANCH   1   7
ATOM      7  N   UNL d   1       0.616  -0.603  -0.013  0.00  0.00    -0.732 N 
ATOM      8  C   UNL d   1       1.834  -0.557  -0.794  0.00  0.00     0.284 C 
ATOM      9  H3  UNL d   1       0.634  -1.282   0.744  0.00  0.00     0.395 HD
ENDBRANCH   1   7
TORSDOF 1
ENDMDL
