MODEL 1
REMARK minimizedAffinity -2.84997153
REMARK minimizedRMSD -1
REMARK  1 active torsions:
REMARK  status: ('A' for Active; 'I' for Inactive)
REMARK    1  A    between atoms: N_2  and  C1_3 
ROOT
ATOM      1  C1  UNL d   1       0.258  -0.085   0.253  0.00  0.00     0.143 A 
ATOM      2  C2  UNL d   1       0.482   0.151   1.613  0.00  0.00    -0.057 A 
ATOM      3  C3  UNL d   1      -0.239   1.129   2.309  0.00  0.00     0.033 A 
ATOM      4  C4  UNL d   1      -1.180   1.910   1.647  0.00  0.00    -0.042 A 
ATOM      5  C5  UNL d   1      -1.402   1.710   0.289  0.00  0.00     0.033 A 
ATOM      6  C6  UNL d   1      -0.683   0.727  -0.399  0.00  0.00    -0.057 A 
ENDROOT
BRANCH   1   7
ATOM      7  N   UNL d   1       1.012  -0.975  -0.517  0.00  0.00    -0.732 N 
ATOM      8  C   UNL d   1       0.392  -1.738  -1.579  0.00  0.00     0.284 C 
ATOM      9  H3  UNL d   1       1.929  -0.603  -0.752  0.00  0.00     0.395 HD
ENDBRANCH   1   7
TORSDOF 1
ENDMDL
