MODEL 1
REMARK minimizedAffinity -4.08959532
REMARK minimizedRMSD -1
REMARK  1 active torsions:
REMARK  status: ('A' for Active; 'I' for Inactive)
REMARK    1  A    between atoms: N_2  and  C1_3 
ROOT
ATOM      1  C1  UNL d   1      -0.786   0.899   0.451  0.00  0.00     0.143 A 
ATOM      2  C2  UNL d   1      -1.525   1.442   1.507  0.00  0.00    -0.057 A 
ATOM      3  C3  UNL d   1      -1.855   2.803   1.538  0.00  0.00     0.033 A 
ATOM      4  C4  UNL d   1      -1.425   3.652   0.523  0.00  0.00    -0.042 A 
ATOM      5  C5  UNL d   1      -0.668   3.138  -0.524  0.00  0.00     0.033 A 
ATOM      6  C6  UNL d   1      -0.347   1.778  -0.552  0.00  0.00    -0.057 A 
ENDROOT
BRANCH   1   7
ATOM      7  N   UNL d   1      -0.342  -0.425   0.413  0.00  0.00    -0.732 N 
ATOM      8  C   UNL d   1       0.792  -0.799  -0.405  0.00  0.00     0.284 C 
ATOM      9  H3  UNL d   1      -0.356  -0.866   1.330  0.00  0.00     0.395 HD
ENDBRANCH   1   7
TORSDOF 1
ENDMDL
