MODEL 1
REMARK minimizedAffinity -3.727597
REMARK minimizedRMSD -1
REMARK  1 active torsions:
REMARK  status: ('A' for Active; 'I' for Inactive)
REMARK    1  A    between atoms: N_2  and  C1_3 
ROOT
ATOM      1  C1  UNL d   1       0.713  -1.513  -1.288  0.00  0.00     0.143 A 
ATOM      2  C2  UNL d   1       1.565  -2.583  -0.993  0.00  0.00    -0.057 A 
ATOM      3  C3  UNL d   1       1.494  -3.786  -1.707  0.00  0.00     0.033 A 
ATOM      4  C4  UNL d   1       0.547  -3.950  -2.712  0.00  0.00    -0.042 A 
ATOM      5  C5  UNL d   1      -0.326  -2.908  -3.005  0.00  0.00     0.033 A 
ATOM      6  C6  UNL d   1      -0.246  -1.708  -2.294  0.00  0.00    -0.057 A 
ENDROOT
BRANCH   1   7
ATOM      7  N   UNL d   1       0.669  -0.328  -0.549  0.00  0.00    -0.732 N 
ATOM      8  C   UNL d   1      -0.257  -0.181   0.554  0.00  0.00     0.284 C 
ATOM      9  H3  UNL d   1       1.595   0.052  -0.368  0.00  0.00     0.395 HD
ENDBRANCH   1   7
TORSDOF 1
ENDMDL
