MODEL 1
REMARK minimizedAffinity 0.0684223175
REMARK minimizedRMSD -1
REMARK  0 active torsions:
REMARK  status: ('A' for Active; 'I' for Inactive)
ROOT
ATOM      1  C   UNL d   1      -2.636   0.743  -3.529  0.00  0.00     0.172 C 
ATOM      2  N   UNL d   1      -3.944   1.281  -3.821  0.00  0.00    -0.070 N 
ATOM      3  C1  UNL d   1      -4.433   2.479  -3.372  0.00  0.00    -0.004 A 
ATOM      4  C2  UNL d   1      -5.710   2.626  -3.869  0.00  0.00    -0.047 A 
ATOM      5  C3  UNL d   1      -5.999   1.476  -4.641  0.00  0.00    -0.047 A 
ATOM      6  C4  UNL d   1      -4.889   0.660  -4.595  0.00  0.00    -0.004 A 
ENDROOT
TORSDOF 0
ENDMDL
