MODEL 1
REMARK minimizedAffinity 5.94069147
REMARK minimizedRMSD -1
REMARK  0 active torsions:
REMARK  status: ('A' for Active; 'I' for Inactive)
ROOT
ATOM      1  C   UNL d   1       5.639   3.489  -0.761  0.00  0.00     0.172 C 
ATOM      2  N   UNL d   1       5.307   2.085  -0.816  0.00  0.00    -0.070 N 
ATOM      3  C1  UNL d   1       4.264   1.485  -0.163  0.00  0.00    -0.004 A 
ATOM      4  C2  UNL d   1       4.289   0.142  -0.473  0.00  0.00    -0.047 A 
ATOM      5  C3  UNL d   1       5.384  -0.072  -1.342  0.00  0.00    -0.047 A 
ATOM      6  C4  UNL d   1       5.998   1.148  -1.538  0.00  0.00    -0.004 A 
ENDROOT
TORSDOF 0
ENDMDL
