MODEL 1
REMARK minimizedAffinity 10.4610834
REMARK minimizedRMSD -1
REMARK  0 active torsions:
REMARK  status: ('A' for Active; 'I' for Inactive)
ROOT
ATOM      1  C   UNL d   1      -4.568   3.722  -4.077  0.00  0.00     0.172 C 
ATOM      2  N   UNL d   1      -3.953   2.497  -4.532  0.00  0.00    -0.070 N 
ATOM      3  C1  UNL d   1      -4.319   1.232  -4.157  0.00  0.00    -0.004 A 
ATOM      4  C2  UNL d   1      -3.493   0.342  -4.809  0.00  0.00    -0.047 A 
ATOM      5  C3  UNL d   1      -2.599   1.098  -5.603  0.00  0.00    -0.047 A 
ATOM      6  C4  UNL d   1      -2.906   2.429  -5.413  0.00  0.00    -0.004 A 
ENDROOT
TORSDOF 0
ENDMDL
