MODEL 1
REMARK minimizedAffinity 1.53085363
REMARK minimizedRMSD -1
REMARK  0 active torsions:
REMARK  status: ('A' for Active; 'I' for Inactive)
ROOT
ATOM      1  C   UNL d   1       2.337   6.000   4.768  0.00  0.00     0.172 C 
ATOM      2  N   UNL d   1       3.627   5.442   5.098  0.00  0.00    -0.070 N 
ATOM      3  C1  UNL d   1       4.545   6.000   5.947  0.00  0.00    -0.004 A 
ATOM      4  C2  UNL d   1       5.639   5.163   5.995  0.00  0.00    -0.047 A 
ATOM      5  C3  UNL d   1       5.370   4.065   5.144  0.00  0.00    -0.047 A 
ATOM      6  C4  UNL d   1       4.118   4.263   4.602  0.00  0.00    -0.004 A 
ENDROOT
TORSDOF 0
ENDMDL
