MODEL 1
REMARK minimizedAffinity 5.08185911
REMARK minimizedRMSD -1
REMARK  0 active torsions:
REMARK  status: ('A' for Active; 'I' for Inactive)
ROOT
ATOM      1  C   UNL d   1       6.000  -1.862   1.125  0.00  0.00     0.172 C 
ATOM      2  N   UNL d   1       5.284  -0.992   0.221  0.00  0.00    -0.070 N 
ATOM      3  C1  UNL d   1       3.931  -1.000   0.009  0.00  0.00    -0.004 A 
ATOM      4  C2  UNL d   1       3.644  -0.024  -0.920  0.00  0.00    -0.047 A 
ATOM      5  C3  UNL d   1       4.866   0.591  -1.280  0.00  0.00    -0.047 A 
ATOM      6  C4  UNL d   1       5.865  -0.027  -0.558  0.00  0.00    -0.004 A 
ENDROOT
TORSDOF 0
ENDMDL
