MODEL 1
REMARK minimizedAffinity 2.35039663
REMARK minimizedRMSD -1
REMARK  0 active torsions:
REMARK  status: ('A' for Active; 'I' for Inactive)
ROOT
ATOM      1  C   UNL d   1       2.391   0.035  -0.653  0.00  0.00     0.172 C 
ATOM      2  N   UNL d   1       3.785   0.408  -0.625  0.00  0.00    -0.070 N 
ATOM      3  C1  UNL d   1       4.271   1.687  -0.672  0.00  0.00    -0.004 A 
ATOM      4  C2  UNL d   1       5.646   1.619  -0.622  0.00  0.00    -0.047 A 
ATOM      5  C3  UNL d   1       6.000   0.252  -0.542  0.00  0.00    -0.047 A 
ATOM      6  C4  UNL d   1       4.829  -0.476  -0.546  0.00  0.00    -0.004 A 
ENDROOT
TORSDOF 0
ENDMDL
