MODEL 1
REMARK minimizedAffinity 0.294365495
REMARK minimizedRMSD -1
REMARK  0 active torsions:
REMARK  status: ('A' for Active; 'I' for Inactive)
ROOT
ATOM      1  C   UNL d   1       3.244  -2.357  -1.078  0.00  0.00     0.172 C 
ATOM      2  N   UNL d   1       4.010  -1.151  -1.285  0.00  0.00    -0.070 N 
ATOM      3  C1  UNL d   1       5.262  -1.084  -1.836  0.00  0.00    -0.004 A 
ATOM      4  C2  UNL d   1       5.643   0.240  -1.858  0.00  0.00    -0.047 A 
ATOM      5  C3  UNL d   1       4.584   0.995  -1.300  0.00  0.00    -0.047 A 
ATOM      6  C4  UNL d   1       3.586   0.109  -0.954  0.00  0.00    -0.004 A 
ENDROOT
TORSDOF 0
ENDMDL
