MODEL 1
REMARK minimizedAffinity -0.20667845
REMARK minimizedRMSD -1
REMARK  0 active torsions:
REMARK  status: ('A' for Active; 'I' for Inactive)
ROOT
ATOM      1  C   UNL d   1      -0.381  -2.769  -1.414  0.00  0.00     0.172 C 
ATOM      2  N   UNL d   1      -0.923  -2.925  -2.744  0.00  0.00    -0.070 N 
ATOM      3  C1  UNL d   1      -0.874  -1.989  -3.741  0.00  0.00    -0.004 A 
ATOM      4  C2  UNL d   1      -1.498  -2.520  -4.849  0.00  0.00    -0.047 A 
ATOM      5  C3  UNL d   1      -1.939  -3.820  -4.506  0.00  0.00    -0.047 A 
ATOM      6  C4  UNL d   1      -1.569  -4.045  -3.196  0.00  0.00    -0.004 A 
ENDROOT
TORSDOF 0
ENDMDL
