MODEL 1
REMARK minimizedAffinity 4.03569031
REMARK minimizedRMSD -1
REMARK  0 active torsions:
REMARK  status: ('A' for Active; 'I' for Inactive)
ROOT
ATOM      1  C   UNL d   1      -5.957   1.413   5.998  0.00  0.00     0.172 C 
ATOM      2  N   UNL d   1      -5.968   2.706   5.357  0.00  0.00    -0.070 N 
ATOM      3  C1  UNL d   1      -5.950   3.916   5.999  0.00  0.00    -0.004 A 
ATOM      4  C2  UNL d   1      -5.968   4.904   5.039  0.00  0.00    -0.047 A 
ATOM      5  C3  UNL d   1      -5.999   4.267   3.776  0.00  0.00    -0.047 A 
ATOM      6  C4  UNL d   1      -5.999   2.906   4.002  0.00  0.00    -0.004 A 
ENDROOT
TORSDOF 0
ENDMDL
