MODEL 1
REMARK minimizedAffinity 7.19968224
REMARK minimizedRMSD -1
REMARK  0 active torsions:
REMARK  status: ('A' for Active; 'I' for Inactive)
ROOT
ATOM      1  C   UNL d   1      -3.135  -2.701  -4.814  0.00  0.00     0.020 A 
ATOM      2  C1  UNL d   1      -3.464  -3.772  -3.985  0.00  0.00     0.020 A 
ATOM      3  C2  UNL d   1      -3.594  -3.576  -2.609  0.00  0.00     0.034 A 
ATOM      4  C3  UNL d   1      -3.394  -2.305  -2.057  0.00  0.00     0.017 A 
ATOM      5  C4  UNL d   1      -3.064  -1.230  -2.890  0.00  0.00     0.017 A 
ATOM      6  C5  UNL d   1      -2.935  -1.432  -4.268  0.00  0.00     0.034 A 
ATOM      7 Cl   UNL d   1      -2.802   0.367  -2.283  0.00  0.00    -0.070 Cl
ATOM      8 Cl1  UNL d   1      -3.571  -2.135  -0.347  0.00  0.00    -0.070 Cl
ENDROOT
TORSDOF 0
ENDMDL
