MODEL 1
REMARK minimizedAffinity 4.31100416
REMARK minimizedRMSD -1
REMARK  0 active torsions:
REMARK  status: ('A' for Active; 'I' for Inactive)
ROOT
ATOM      1  C   UNL d   1       5.425  -5.905  -3.247  0.00  0.00     0.020 A 
ATOM      2  C1  UNL d   1       5.282  -5.906  -4.634  0.00  0.00     0.020 A 
ATOM      3  C2  UNL d   1       4.008  -5.936  -5.204  0.00  0.00     0.034 A 
ATOM      4  C3  UNL d   1       2.872  -5.965  -4.387  0.00  0.00     0.017 A 
ATOM      5  C4  UNL d   1       3.016  -5.964  -2.995  0.00  0.00     0.017 A 
ATOM      6  C5  UNL d   1       4.295  -5.934  -2.429  0.00  0.00     0.034 A 
ATOM      7 Cl   UNL d   1       1.662  -5.998  -1.922  0.00  0.00    -0.070 Cl
ATOM      8 Cl1  UNL d   1       1.327  -6.000  -5.160  0.00  0.00    -0.070 Cl
ENDROOT
TORSDOF 0
ENDMDL
