MODEL 1
REMARK minimizedAffinity -1.96458721
REMARK minimizedRMSD -1
REMARK  0 active torsions:
REMARK  status: ('A' for Active; 'I' for Inactive)
ROOT
ATOM      1  C   UNL d   1       5.011  -5.996  -2.252  0.00  0.00     0.020 A 
ATOM      2  C1  UNL d   1       3.863  -5.999  -3.043  0.00  0.00     0.020 A 
ATOM      3  C2  UNL d   1       2.602  -6.000  -2.443  0.00  0.00     0.034 A 
ATOM      4  C3  UNL d   1       2.486  -5.997  -1.048  0.00  0.00     0.017 A 
ATOM      5  C4  UNL d   1       3.639  -5.994  -0.255  0.00  0.00     0.017 A 
ATOM      6  C5  UNL d   1       4.899  -5.994  -0.861  0.00  0.00     0.034 A 
ATOM      7 Cl   UNL d   1       3.576  -5.991   1.472  0.00  0.00    -0.070 Cl
ATOM      8 Cl1  UNL d   1       0.895  -5.998  -0.374  0.00  0.00    -0.070 Cl
ENDROOT
TORSDOF 0
ENDMDL
