MODEL 1
REMARK minimizedAffinity 4.66071701
REMARK minimizedRMSD -1
REMARK  0 active torsions:
REMARK  status: ('A' for Active; 'I' for Inactive)
ROOT
ATOM      1  C   UNL d   1       4.109  -5.769  -1.498  0.00  0.00     0.020 A 
ATOM      2  C1  UNL d   1       2.908  -5.931  -2.187  0.00  0.00     0.020 A 
ATOM      3  C2  UNL d   1       1.703  -5.998  -1.484  0.00  0.00     0.034 A 
ATOM      4  C3  UNL d   1       1.697  -5.903  -0.087  0.00  0.00     0.017 A 
ATOM      5  C4  UNL d   1       2.904  -5.740   0.603  0.00  0.00     0.017 A 
ATOM      6  C5  UNL d   1       4.107  -5.674  -0.106  0.00  0.00     0.034 A 
ATOM      7 Cl   UNL d   1       2.976  -5.615   2.326  0.00  0.00    -0.070 Cl
ATOM      8 Cl1  UNL d   1       0.171  -5.994   0.718  0.00  0.00    -0.070 Cl
ENDROOT
TORSDOF 0
ENDMDL
