MODEL 1
REMARK minimizedAffinity 11.8667107
REMARK minimizedRMSD -1
REMARK  0 active torsions:
REMARK  status: ('A' for Active; 'I' for Inactive)
ROOT
ATOM      1  C   UNL d   1       1.991  -5.512   0.215  0.00  0.00     0.020 A 
ATOM      2  C1  UNL d   1       3.105  -5.930   0.943  0.00  0.00     0.020 A 
ATOM      3  C2  UNL d   1       3.619  -5.121   1.958  0.00  0.00     0.034 A 
ATOM      4  C3  UNL d   1       3.019  -3.890   2.249  0.00  0.00     0.017 A 
ATOM      5  C4  UNL d   1       1.902  -3.471   1.517  0.00  0.00     0.017 A 
ATOM      6  C5  UNL d   1       1.391  -4.285   0.502  0.00  0.00     0.034 A 
ATOM      7 Cl   UNL d   1       1.108  -1.965   1.818  0.00  0.00    -0.070 Cl
ATOM      8 Cl1  UNL d   1       3.708  -2.941   3.518  0.00  0.00    -0.070 Cl
ENDROOT
TORSDOF 0
ENDMDL
