MODEL 1
REMARK minimizedAffinity -0.407629997
REMARK minimizedRMSD -1
REMARK  0 active torsions:
REMARK  status: ('A' for Active; 'I' for Inactive)
ROOT
ATOM      1  C   UNL d   1       5.282   1.501  -4.852  0.00  0.00     0.020 A 
ATOM      2  C1  UNL d   1       5.762   0.870  -5.999  0.00  0.00     0.020 A 
ATOM      3  C2  UNL d   1       5.976  -0.510  -5.999  0.00  0.00     0.034 A 
ATOM      4  C3  UNL d   1       5.711  -1.263  -4.849  0.00  0.00     0.017 A 
ATOM      5  C4  UNL d   1       5.229  -0.629  -3.699  0.00  0.00     0.017 A 
ATOM      6  C5  UNL d   1       5.016   0.753  -3.705  0.00  0.00     0.034 A 
ATOM      7 Cl   UNL d   1       4.878  -1.491  -2.243  0.00  0.00    -0.070 Cl
ATOM      8 Cl1  UNL d   1       5.998  -2.966  -4.920  0.00  0.00    -0.070 Cl
ENDROOT
TORSDOF 0
ENDMDL
