MODEL 1
REMARK minimizedAffinity -2.75486231
REMARK minimizedRMSD -1
REMARK  0 active torsions:
REMARK  status: ('A' for Active; 'I' for Inactive)
ROOT
ATOM      1  C   UNL d   1       4.047  -1.534  -5.979  0.00  0.00     0.020 A 
ATOM      2  C1  UNL d   1       5.429  -1.723  -5.968  0.00  0.00     0.020 A 
ATOM      3  C2  UNL d   1       5.957  -3.015  -5.965  0.00  0.00     0.034 A 
ATOM      4  C3  UNL d   1       5.103  -4.124  -5.975  0.00  0.00     0.017 A 
ATOM      5  C4  UNL d   1       3.716  -3.934  -5.987  0.00  0.00     0.017 A 
ATOM      6  C5  UNL d   1       3.193  -2.637  -5.989  0.00  0.00     0.034 A 
ATOM      7 Cl   UNL d   1       2.599  -5.253  -5.999  0.00  0.00    -0.070 Cl
ATOM      8 Cl1  UNL d   1       5.824  -5.694  -5.972  0.00  0.00    -0.070 Cl
ENDROOT
TORSDOF 0
ENDMDL
