MODEL 1
REMARK minimizedAffinity 16.0020065
REMARK minimizedRMSD -1
REMARK  2 active torsions:
REMARK  status: ('A' for Active; 'I' for Inactive)
REMARK    1  A    between atoms: C2'_3  and  C1'_4 
REMARK    2  A    between atoms: C1'_4  and  C1_5 
ROOT
ATOM      1  C1  I4B d   1      -1.029  -2.238   2.145  0.00  0.00    -0.075 A 
ATOM      2  C2  I4B d   1       0.161  -1.848   2.707  0.00  0.00     0.003 A 
ATOM      3  C3  I4B d   1       1.387  -2.324   2.183  0.00  0.00     0.002 A 
ATOM      4  C4  I4B d   1       1.375  -3.223   1.136  0.00  0.00    -0.004 A 
ATOM      5  C5  I4B d   1       0.169  -3.600   0.552  0.00  0.00     0.002 A 
ATOM      6  C6  I4B d   1      -1.040  -3.095   1.052  0.00  0.00     0.003 A 
ENDROOT
BRANCH   1   7
ATOM      7  C1' I4B d   1      -2.306  -1.742   2.744  0.00  0.00     0.060 C 
BRANCH   7   8
ATOM      8  C2' I4B d   1      -2.220  -0.232   2.842  0.00  0.00    -0.013 C 
ATOM      9  C4' I4B d   1      -2.754   0.426   1.597  0.00  0.00     0.013 C 
ATOM     10  C3' I4B d   1      -2.990   0.197   4.055  0.00  0.00     0.013 C 
ENDBRANCH   7   8
ENDBRANCH   1   7
TORSDOF 2
ENDMDL
