MODEL 1
REMARK minimizedAffinity 8.07361221
REMARK minimizedRMSD -1
REMARK  2 active torsions:
REMARK  status: ('A' for Active; 'I' for Inactive)
REMARK    1  A    between atoms: C2'_3  and  C1'_4 
REMARK    2  A    between atoms: C1'_4  and  C1_5 
ROOT
ATOM      1  C1  I4B d   1      -4.253  -3.326   3.070  0.00  0.00    -0.075 A 
ATOM      2  C2  I4B d   1      -4.530  -3.129   4.399  0.00  0.00     0.003 A 
ATOM      3  C3  I4B d   1      -5.191  -4.134   5.146  0.00  0.00     0.002 A 
ATOM      4  C4  I4B d   1      -5.598  -5.293   4.516  0.00  0.00    -0.004 A 
ATOM      5  C5  I4B d   1      -5.295  -5.500   3.173  0.00  0.00     0.002 A 
ATOM      6  C6  I4B d   1      -4.607  -4.516   2.448  0.00  0.00     0.003 A 
ENDROOT
BRANCH   1   7
ATOM      7  C1' I4B d   1      -3.583  -2.230   2.303  0.00  0.00     0.060 C 
BRANCH   7   8
ATOM      8  C2' I4B d   1      -2.142  -2.152   2.763  0.00  0.00    -0.013 C 
ATOM      9  C4' I4B d   1      -1.198  -2.603   1.679  0.00  0.00     0.013 C 
ATOM     10  C3' I4B d   1      -1.862  -0.735   3.169  0.00  0.00     0.013 C 
ENDBRANCH   7   8
ENDBRANCH   1   7
TORSDOF 2
ENDMDL
