MODEL 1
REMARK minimizedAffinity 12.8613892
REMARK minimizedRMSD -1
REMARK  2 active torsions:
REMARK  status: ('A' for Active; 'I' for Inactive)
REMARK    1  A    between atoms: C2'_3  and  C1'_4 
REMARK    2  A    between atoms: C1'_4  and  C1_5 
ROOT
ATOM      1  C1  I4B d   1      -2.680  -2.369   1.774  0.00  0.00    -0.075 A 
ATOM      2  C2  I4B d   1      -1.494  -2.333   1.084  0.00  0.00     0.003 A 
ATOM      3  C3  I4B d   1      -0.722  -1.146   1.054  0.00  0.00     0.002 A 
ATOM      4  C4  I4B d   1      -1.196  -0.011   1.680  0.00  0.00    -0.004 A 
ATOM      5  C5  I4B d   1      -2.388  -0.056   2.398  0.00  0.00     0.002 A 
ATOM      6  C6  I4B d   1      -3.128  -1.245   2.456  0.00  0.00     0.003 A 
ENDROOT
BRANCH   1   7
ATOM      7  C1' I4B d   1      -3.485  -3.629   1.758  0.00  0.00     0.060 C 
BRANCH   7   8
ATOM      8  C2' I4B d   1      -4.777  -3.367   2.506  0.00  0.00    -0.013 C 
ATOM      9  C4' I4B d   1      -5.938  -3.229   1.556  0.00  0.00     0.013 C 
ATOM     10  C3' I4B d   1      -4.994  -4.499   3.465  0.00  0.00     0.013 C 
ENDBRANCH   7   8
ENDBRANCH   1   7
TORSDOF 2
ENDMDL
