MODEL 1
REMARK minimizedAffinity 16.6787262
REMARK minimizedRMSD -1
REMARK  2 active torsions:
REMARK  status: ('A' for Active; 'I' for Inactive)
REMARK    1  A    between atoms: C2'_3  and  C1'_4 
REMARK    2  A    between atoms: C1'_4  and  C1_5 
ROOT
ATOM      1  C1  I4B d   1      -2.175  -0.049   2.448  0.00  0.00    -0.075 A 
ATOM      2  C2  I4B d   1      -1.025   0.088   1.710  0.00  0.00     0.003 A 
ATOM      3  C3  I4B d   1      -0.586  -0.966   0.873  0.00  0.00     0.002 A 
ATOM      4  C4  I4B d   1      -1.295  -2.150   0.842  0.00  0.00    -0.004 A 
ATOM      5  C5  I4B d   1      -2.472  -2.278   1.573  0.00  0.00     0.002 A 
ATOM      6  C6  I4B d   1      -2.922  -1.217   2.372  0.00  0.00     0.003 A 
ENDROOT
BRANCH   1   7
ATOM      7  C1' I4B d   1      -2.592   1.071   3.347  0.00  0.00     0.060 C 
BRANCH   7   8
ATOM      8  C2' I4B d   1      -2.814   0.500   4.733  0.00  0.00    -0.013 C 
ATOM      9  C4' I4B d   1      -1.508   0.137   5.389  0.00  0.00     0.013 C 
ATOM     10  C3' I4B d   1      -3.560   1.520   5.540  0.00  0.00     0.013 C 
ENDBRANCH   7   8
ENDBRANCH   1   7
TORSDOF 2
ENDMDL
