MODEL 1
REMARK minimizedAffinity 6.78658342
REMARK minimizedRMSD -1
REMARK  2 active torsions:
REMARK  status: ('A' for Active; 'I' for Inactive)
REMARK    1  A    between atoms: C2'_3  and  C1'_4 
REMARK    2  A    between atoms: C1'_4  and  C1_5 
ROOT
ATOM      1  C1  I4B d   1      -5.225   1.183   2.155  0.00  0.00    -0.075 A 
ATOM      2  C2  I4B d   1      -3.853   1.157   2.103  0.00  0.00     0.003 A 
ATOM      3  C3  I4B d   1      -3.089   1.782   3.118  0.00  0.00     0.002 A 
ATOM      4  C4  I4B d   1      -3.734   2.462   4.132  0.00  0.00    -0.004 A 
ATOM      5  C5  I4B d   1      -5.124   2.469   4.195  0.00  0.00     0.002 A 
ATOM      6  C6  I4B d   1      -5.875   1.815   3.207  0.00  0.00     0.003 A 
ENDROOT
BRANCH   1   7
ATOM      7  C1' I4B d   1      -6.000   0.541   1.049  0.00  0.00     0.060 C 
BRANCH   7   8
ATOM      8  C2' I4B d   1      -5.476   1.084  -0.265  0.00  0.00    -0.013 C 
ATOM      9  C4' I4B d   1      -5.887   0.208  -1.420  0.00  0.00     0.013 C 
ATOM     10  C3' I4B d   1      -6.000   2.479  -0.431  0.00  0.00     0.013 C 
ENDBRANCH   7   8
ENDBRANCH   1   7
TORSDOF 2
ENDMDL
