MODEL 1
REMARK minimizedAffinity 11.1855125
REMARK minimizedRMSD -1
REMARK  2 active torsions:
REMARK  status: ('A' for Active; 'I' for Inactive)
REMARK    1  A    between atoms: C2'_3  and  C1'_4 
REMARK    2  A    between atoms: C1'_4  and  C1_5 
ROOT
ATOM      1  C1  I4B d   1       3.560   1.415  -0.984  0.00  0.00    -0.075 A 
ATOM      2  C2  I4B d   1       4.644   2.140  -0.558  0.00  0.00     0.003 A 
ATOM      3  C3  I4B d   1       4.974   2.189   0.818  0.00  0.00     0.002 A 
ATOM      4  C4  I4B d   1       4.168   1.542   1.733  0.00  0.00    -0.004 A 
ATOM      5  C5  I4B d   1       3.082   0.788   1.297  0.00  0.00     0.002 A 
ATOM      6  C6  I4B d   1       2.783   0.713  -0.071  0.00  0.00     0.003 A 
ENDROOT
BRANCH   1   7
ATOM      7  C1' I4B d   1       3.221   1.412  -2.441  0.00  0.00     0.060 C 
BRANCH   7   8
ATOM      8  C2' I4B d   1       3.408   2.821  -2.966  0.00  0.00    -0.013 C 
ATOM      9  C4' I4B d   1       4.063   2.816  -4.322  0.00  0.00     0.013 C 
ATOM     10  C3' I4B d   1       2.062   3.479  -3.017  0.00  0.00     0.013 C 
ENDBRANCH   7   8
ENDBRANCH   1   7
TORSDOF 2
ENDMDL
