MODEL 1
REMARK minimizedAffinity 11.6818733
REMARK minimizedRMSD -1
REMARK  2 active torsions:
REMARK  status: ('A' for Active; 'I' for Inactive)
REMARK    1  A    between atoms: C2'_3  and  C1'_4 
REMARK    2  A    between atoms: C1'_4  and  C1_5 
ROOT
ATOM      1  C1  I4B d   1      -0.499  -1.500   2.166  0.00  0.00    -0.075 A 
ATOM      2  C2  I4B d   1      -0.663  -0.670   3.247  0.00  0.00     0.003 A 
ATOM      3  C3  I4B d   1      -1.742   0.246   3.285  0.00  0.00     0.002 A 
ATOM      4  C4  I4B d   1      -2.598   0.333   2.206  0.00  0.00    -0.004 A 
ATOM      5  C5  I4B d   1      -2.445  -0.526   1.122  0.00  0.00     0.002 A 
ATOM      6  C6  I4B d   1      -1.396  -1.457   1.106  0.00  0.00     0.003 A 
ENDROOT
BRANCH   1   7
ATOM      7  C1' I4B d   1       0.671  -2.432   2.144  0.00  0.00     0.060 C 
BRANCH   7   8
ATOM      8  C2' I4B d   1       1.561  -2.091   3.321  0.00  0.00    -0.013 C 
ATOM      9  C4' I4B d   1       1.816  -3.302   4.181  0.00  0.00     0.013 C 
ATOM     10  C3' I4B d   1       2.844  -1.529   2.785  0.00  0.00     0.013 C 
ENDBRANCH   7   8
ENDBRANCH   1   7
TORSDOF 2
ENDMDL
