MODEL 1
REMARK minimizedAffinity 14.0873041
REMARK minimizedRMSD -1
REMARK  2 active torsions:
REMARK  status: ('A' for Active; 'I' for Inactive)
REMARK    1  A    between atoms: C2'_3  and  C1'_4 
REMARK    2  A    between atoms: C1'_4  and  C1_5 
ROOT
ATOM      1  C1  I4B d   1      -2.645  -2.522   1.669  0.00  0.00    -0.075 A 
ATOM      2  C2  I4B d   1      -3.256  -1.611   2.494  0.00  0.00     0.003 A 
ATOM      3  C3  I4B d   1      -2.620  -0.382   2.795  0.00  0.00     0.002 A 
ATOM      4  C4  I4B d   1      -1.359  -0.129   2.294  0.00  0.00    -0.004 A 
ATOM      5  C5  I4B d   1      -0.751  -1.044   1.440  0.00  0.00     0.002 A 
ATOM      6  C6  I4B d   1      -1.403  -2.243   1.115  0.00  0.00     0.003 A 
ENDROOT
BRANCH   1   7
ATOM      7  C1' I4B d   1      -3.332  -3.823   1.399  0.00  0.00     0.060 C 
BRANCH   7   8
ATOM      8  C2' I4B d   1      -4.530  -3.919   2.321  0.00  0.00    -0.013 C 
ATOM      9  C4' I4B d   1      -5.808  -4.074   1.539  0.00  0.00     0.013 C 
ATOM     10  C3' I4B d   1      -4.314  -5.082   3.242  0.00  0.00     0.013 C 
ENDBRANCH   7   8
ENDBRANCH   1   7
TORSDOF 2
ENDMDL
