MODEL 1
REMARK minimizedAffinity 14.9336863
REMARK minimizedRMSD -1
REMARK  2 active torsions:
REMARK  status: ('A' for Active; 'I' for Inactive)
REMARK    1  A    between atoms: C2'_3  and  C1'_4 
REMARK    2  A    between atoms: C1'_4  and  C1_5 
ROOT
ATOM      1  C1  I4B d   1       2.719   2.022  -1.911  0.00  0.00    -0.075 A 
ATOM      2  C2  I4B d   1       3.338   0.811  -1.726  0.00  0.00     0.003 A 
ATOM      3  C3  I4B d   1       3.389   0.225  -0.438  0.00  0.00     0.002 A 
ATOM      4  C4  I4B d   1       2.857   0.905   0.639  0.00  0.00    -0.004 A 
ATOM      5  C5  I4B d   1       2.210   2.123   0.446  0.00  0.00     0.002 A 
ATOM      6  C6  I4B d   1       2.130   2.679  -0.839  0.00  0.00     0.003 A 
ENDROOT
BRANCH   1   7
ATOM      7  C1' I4B d   1       2.712   2.627  -3.279  0.00  0.00     0.060 C 
BRANCH   7   8
ATOM      8  C2' I4B d   1       4.145   2.689  -3.769  0.00  0.00    -0.013 C 
ATOM      9  C4' I4B d   1       4.204   2.780  -5.271  0.00  0.00     0.013 C 
ATOM     10  C3' I4B d   1       4.802   3.875  -3.128  0.00  0.00     0.013 C 
ENDBRANCH   7   8
ENDBRANCH   1   7
TORSDOF 2
ENDMDL
