MODEL 1
REMARK minimizedAffinity 4.42499733
REMARK minimizedRMSD -1
REMARK  2 active torsions:
REMARK  status: ('A' for Active; 'I' for Inactive)
REMARK    1  A    between atoms: C2'_3  and  C1'_4 
REMARK    2  A    between atoms: C1'_4  and  C1_5 
ROOT
ATOM      1  C1  I4B d   1       3.389   1.887   0.434  0.00  0.00    -0.075 A 
ATOM      2  C2  I4B d   1       3.759   2.053  -0.877  0.00  0.00     0.003 A 
ATOM      3  C3  I4B d   1       2.799   1.924  -1.910  0.00  0.00     0.002 A 
ATOM      4  C4  I4B d   1       1.501   1.581  -1.593  0.00  0.00    -0.004 A 
ATOM      5  C5  I4B d   1       1.123   1.436  -0.261  0.00  0.00     0.002 A 
ATOM      6  C6  I4B d   1       2.070   1.602   0.760  0.00  0.00     0.003 A 
ENDROOT
BRANCH   1   7
ATOM      7  C1' I4B d   1       4.435   1.998   1.498  0.00  0.00     0.060 C 
BRANCH   7   8
ATOM      8  C2' I4B d   1       5.054   3.378   1.402  0.00  0.00    -0.013 C 
ATOM      9  C4' I4B d   1       5.763   3.748   2.678  0.00  0.00     0.013 C 
ATOM     10  C3' I4B d   1       5.998   3.382   0.237  0.00  0.00     0.013 C 
ENDBRANCH   7   8
ENDBRANCH   1   7
TORSDOF 2
ENDMDL
