MODEL 1
REMARK minimizedAffinity 16.5912743
REMARK minimizedRMSD -1
REMARK  2 active torsions:
REMARK  status: ('A' for Active; 'I' for Inactive)
REMARK    1  A    between atoms: C2'_3  and  C1'_4 
REMARK    2  A    between atoms: C1'_4  and  C1_5 
ROOT
ATOM      1  C1  I4B d   1      -0.664  -4.037  -3.019  0.00  0.00    -0.075 A 
ATOM      2  C2  I4B d   1      -0.702  -4.549  -1.746  0.00  0.00     0.003 A 
ATOM      3  C3  I4B d   1      -1.180  -3.758  -0.674  0.00  0.00     0.002 A 
ATOM      4  C4  I4B d   1      -1.561  -2.452  -0.909  0.00  0.00    -0.004 A 
ATOM      5  C5  I4B d   1      -1.544  -1.942  -2.204  0.00  0.00     0.002 A 
ATOM      6  C6  I4B d   1      -1.104  -2.743  -3.268  0.00  0.00     0.003 A 
ENDROOT
BRANCH   1   7
ATOM      7  C1' I4B d   1      -0.122  -4.888  -4.123  0.00  0.00     0.060 C 
BRANCH   7   8
ATOM      8  C2' I4B d   1      -1.189  -5.895  -4.503  0.00  0.00    -0.013 C 
ATOM      9  C4' I4B d   1      -2.536  -5.492  -3.962  0.00  0.00     0.013 C 
ATOM     10  C3' I4B d   1      -1.215  -5.999  -5.999  0.00  0.00     0.013 C 
ENDBRANCH   7   8
ENDBRANCH   1   7
TORSDOF 2
ENDMDL
