MODEL 1
REMARK minimizedAffinity 3.61019254
REMARK minimizedRMSD -1
REMARK  2 active torsions:
REMARK  status: ('A' for Active; 'I' for Inactive)
REMARK    1  A    between atoms: C2'_3  and  C1'_4 
REMARK    2  A    between atoms: C1'_4  and  C1_5 
ROOT
ATOM      1  C1  I4B d   1       3.156  -4.130   0.377  0.00  0.00    -0.075 A 
ATOM      2  C2  I4B d   1       1.793  -4.074   0.524  0.00  0.00     0.003 A 
ATOM      3  C3  I4B d   1       1.121  -2.829   0.468  0.00  0.00     0.002 A 
ATOM      4  C4  I4B d   1       1.851  -1.669   0.314  0.00  0.00    -0.004 A 
ATOM      5  C5  I4B d   1       3.231  -1.730   0.142  0.00  0.00     0.002 A 
ATOM      6  C6  I4B d   1       3.887  -2.969   0.162  0.00  0.00     0.003 A 
ENDROOT
BRANCH   1   7
ATOM      7  C1' I4B d   1       3.837  -5.459   0.475  0.00  0.00     0.060 C 
BRANCH   7   8
ATOM      8  C2' I4B d   1       5.329  -5.212   0.580  0.00  0.00    -0.013 C 
ATOM      9  C4' I4B d   1       5.862  -5.654   1.917  0.00  0.00     0.013 C 
ATOM     10  C3' I4B d   1       6.000  -5.949  -0.541  0.00  0.00     0.013 C 
ENDBRANCH   7   8
ENDBRANCH   1   7
TORSDOF 2
ENDMDL
