MODEL 1
REMARK minimizedAffinity 4.8869915
REMARK minimizedRMSD -1
REMARK  2 active torsions:
REMARK  status: ('A' for Active; 'I' for Inactive)
REMARK    1  A    between atoms: C2'_3  and  C1'_4 
REMARK    2  A    between atoms: C1'_4  and  C1_5 
ROOT
ATOM      1  C1  I4B d   1       3.104  -4.754   0.147  0.00  0.00    -0.075 A 
ATOM      2  C2  I4B d   1       3.846  -3.604   0.033  0.00  0.00     0.003 A 
ATOM      3  C3  I4B d   1       5.249  -3.640   0.215  0.00  0.00     0.002 A 
ATOM      4  C4  I4B d   1       5.860  -4.830   0.559  0.00  0.00    -0.004 A 
ATOM      5  C5  I4B d   1       5.109  -5.998   0.652  0.00  0.00     0.002 A 
ATOM      6  C6  I4B d   1       3.725  -5.963   0.433  0.00  0.00     0.003 A 
ENDROOT
BRANCH   1   7
ATOM      7  C1' I4B d   1       1.620  -4.673  -0.020  0.00  0.00     0.060 C 
BRANCH   7   8
ATOM      8  C2' I4B d   1       1.184  -3.271   0.352  0.00  0.00    -0.013 C 
ATOM      9  C4' I4B d   1       0.445  -2.611  -0.783  0.00  0.00     0.013 C 
ATOM     10  C3' I4B d   1       0.324  -3.363   1.577  0.00  0.00     0.013 C 
ENDBRANCH   7   8
ENDBRANCH   1   7
TORSDOF 2
ENDMDL
