MODEL 1
REMARK minimizedAffinity -3.56115913
REMARK minimizedRMSD -1
REMARK  1 active torsions:
REMARK  status: ('A' for Active; 'I' for Inactive)
REMARK    1  A    between atoms: C1_2  and  C2_3 
ROOT
ATOM      1  C2  UNL d   1      -0.829   0.464   1.196  0.00  0.00    -0.076 A 
ATOM      2  C3  UNL d   1      -1.719   0.095   0.172  0.00  0.00     0.004 A 
ATOM      3  C4  UNL d   1      -1.252  -0.452  -1.022  0.00  0.00    -0.003 A 
ATOM      4  C5  UNL d   1       0.113  -0.639  -1.211  0.00  0.00     0.000 A 
ATOM      5  C6  UNL d   1       1.009  -0.295  -0.199  0.00  0.00     0.000 A 
ATOM      6  C7  UNL d   1       0.553   0.243   1.017  0.00  0.00    -0.073 A 
ATOM      7  C8  UNL d   1       1.564   0.602   2.071  0.00  0.00     0.078 C 
ENDROOT
BRANCH   1   8
ATOM      8  C1  UNL d   1      -1.392   1.078   2.458  0.00  0.00     0.053 C 
ATOM      9  C   UNL d   1      -2.353   0.147   3.180  0.00  0.00     0.018 C 
ENDBRANCH   1   8
TORSDOF 1
ENDMDL
