MODEL 1
REMARK minimizedAffinity -1.43060708
REMARK minimizedRMSD -1
REMARK  1 active torsions:
REMARK  status: ('A' for Active; 'I' for Inactive)
REMARK    1  A    between atoms: C1_2  and  C2_3 
ROOT
ATOM      1  C2  UNL d   1       0.097   0.626   1.453  0.00  0.00    -0.076 A 
ATOM      2  C3  UNL d   1      -0.455   0.219   0.226  0.00  0.00     0.004 A 
ATOM      3  C4  UNL d   1      -1.824  -0.010   0.095  0.00  0.00    -0.003 A 
ATOM      4  C5  UNL d   1      -2.663   0.165   1.190  0.00  0.00     0.000 A 
ATOM      5  C6  UNL d   1      -2.136   0.585   2.410  0.00  0.00     0.000 A 
ATOM      6  C7  UNL d   1      -0.760   0.836   2.554  0.00  0.00    -0.073 A 
ATOM      7  C8  UNL d   1      -0.245   1.282   3.895  0.00  0.00     0.078 C 
ENDROOT
BRANCH   1   8
ATOM      8  C1  UNL d   1       1.592   0.833   1.542  0.00  0.00     0.053 C 
ATOM      9  C   UNL d   1       2.336  -0.443   1.904  0.00  0.00     0.018 C 
ENDBRANCH   1   8
TORSDOF 1
ENDMDL
