MODEL 1
REMARK minimizedAffinity -6.35653973
REMARK minimizedRMSD -1
REMARK  1 active torsions:
REMARK  status: ('A' for Active; 'I' for Inactive)
REMARK    1  A    between atoms: C1_2  and  C2_3 
ROOT
ATOM      1  C2  UNL d   1       0.070  -0.172   0.787  0.00  0.00    -0.076 A 
ATOM      2  C3  UNL d   1      -1.004   0.657   1.155  0.00  0.00     0.004 A 
ATOM      3  C4  UNL d   1      -1.037   1.276   2.403  0.00  0.00    -0.003 A 
ATOM      4  C5  UNL d   1       0.004   1.077   3.303  0.00  0.00     0.000 A 
ATOM      5  C6  UNL d   1       1.086   0.273   2.948  0.00  0.00     0.000 A 
ATOM      6  C7  UNL d   1       1.142  -0.346   1.687  0.00  0.00    -0.073 A 
ATOM      7  C8  UNL d   1       2.330  -1.208   1.359  0.00  0.00     0.078 C 
ENDROOT
BRANCH   1   8
ATOM      8  C1  UNL d   1       0.038  -0.839  -0.570  0.00  0.00     0.053 C 
ATOM      9  C   UNL d   1       0.508   0.084  -1.684  0.00  0.00     0.018 C 
ENDBRANCH   1   8
TORSDOF 1
ENDMDL
