MODEL 1
REMARK minimizedAffinity 7.15183449
REMARK minimizedRMSD -1
REMARK  1 active torsions:
REMARK  status: ('A' for Active; 'I' for Inactive)
REMARK    1  A    between atoms: C1_2  and  C2_3 
ROOT
ATOM      1  C2  UNL d   1       2.692  -0.201  -4.054  0.00  0.00    -0.076 A 
ATOM      2  C3  UNL d   1       3.278  -1.201  -4.850  0.00  0.00     0.004 A 
ATOM      3  C4  UNL d   1       4.517  -1.746  -4.519  0.00  0.00    -0.003 A 
ATOM      4  C5  UNL d   1       5.191  -1.301  -3.387  0.00  0.00     0.000 A 
ATOM      5  C6  UNL d   1       4.616  -0.323  -2.576  0.00  0.00     0.000 A 
ATOM      6  C7  UNL d   1       3.360   0.226  -2.886  0.00  0.00    -0.073 A 
ATOM      7  C8  UNL d   1       2.790   1.282  -1.980  0.00  0.00     0.078 C 
ENDROOT
BRANCH   1   8
ATOM      8  C1  UNL d   1       1.358   0.372  -4.477  0.00  0.00     0.053 C 
ATOM      9  C   UNL d   1       0.250  -0.670  -4.479  0.00  0.00     0.018 C 
ENDBRANCH   1   8
TORSDOF 1
ENDMDL
