MODEL 1
REMARK minimizedAffinity 6.42664385
REMARK minimizedRMSD -1
REMARK  1 active torsions:
REMARK  status: ('A' for Active; 'I' for Inactive)
REMARK    1  A    between atoms: C1_2  and  C2_3 
ROOT
ATOM      1  C2  UNL d   1      -2.524   1.158   1.857  0.00  0.00    -0.076 A 
ATOM      2  C3  UNL d   1      -1.750   2.331   1.886  0.00  0.00     0.004 A 
ATOM      3  C4  UNL d   1      -0.629   2.431   2.708  0.00  0.00    -0.003 A 
ATOM      4  C5  UNL d   1      -0.264   1.360   3.516  0.00  0.00     0.000 A 
ATOM      5  C6  UNL d   1      -1.010   0.182   3.487  0.00  0.00     0.000 A 
ATOM      6  C7  UNL d   1      -2.133   0.059   2.651  0.00  0.00    -0.073 A 
ATOM      7  C8  UNL d   1      -2.905  -1.232   2.664  0.00  0.00     0.078 C 
ENDROOT
BRANCH   1   8
ATOM      8  C1  UNL d   1      -3.744   1.117   0.965  0.00  0.00     0.053 C 
ATOM      9  C   UNL d   1      -3.490   0.374  -0.337  0.00  0.00     0.018 C 
ENDBRANCH   1   8
TORSDOF 1
ENDMDL
