MODEL 1
REMARK minimizedAffinity 6.49138451
REMARK minimizedRMSD -1
REMARK  0 active torsions:
REMARK  status: ('A' for Active; 'I' for Inactive)
ROOT
ATOM      1  O1  BZF d   1       2.595  -4.610  -2.611  0.00  0.00    -0.204 OA
ATOM      2  C2  BZF d   1       1.465  -4.281  -1.889  0.00  0.00     0.174 A 
ATOM      3  C3  BZF d   1       0.351  -4.505  -2.615  0.00  0.00    -0.012 A 
ATOM      4  C3A BZF d   1       0.809  -5.093  -3.836  0.00  0.00    -0.107 A 
ATOM      5  C4  BZF d   1       0.173  -5.552  -4.954  0.00  0.00     0.055 A 
ATOM      6  C5  BZF d   1       0.917  -6.000  -6.000  0.00  0.00    -0.016 A 
ATOM      7  C6  BZF d   1       2.296  -5.998  -5.964  0.00  0.00     0.022 A 
ATOM      8  C7  BZF d   1       2.971  -5.557  -4.875  0.00  0.00     0.029 A 
ATOM      9  C7A BZF d   1       2.222  -5.135  -3.803  0.00  0.00     0.058 A 
ENDROOT
TORSDOF 0
ENDMDL
