MODEL 1
REMARK minimizedAffinity 16.3638344
REMARK minimizedRMSD -1
REMARK  0 active torsions:
REMARK  status: ('A' for Active; 'I' for Inactive)
ROOT
ATOM      1  O1  BZF d   1      -2.083  -2.238   4.616  0.00  0.00    -0.204 OA
ATOM      2  C2  BZF d   1      -2.450  -3.247   3.747  0.00  0.00     0.174 A 
ATOM      3  C3  BZF d   1      -1.694  -3.215   2.631  0.00  0.00    -0.012 A 
ATOM      4  C3A BZF d   1      -0.737  -2.174   2.854  0.00  0.00    -0.107 A 
ATOM      5  C4  BZF d   1       0.295  -1.673   2.113  0.00  0.00     0.055 A 
ATOM      6  C5  BZF d   1       0.991  -0.606   2.586  0.00  0.00    -0.016 A 
ATOM      7  C6  BZF d   1       0.678  -0.013   3.792  0.00  0.00     0.022 A 
ATOM      8  C7  BZF d   1      -0.334  -0.478   4.564  0.00  0.00     0.029 A 
ATOM      9  C7A BZF d   1      -1.017  -1.576   4.104  0.00  0.00     0.058 A 
ENDROOT
TORSDOF 0
ENDMDL
