MODEL 1
REMARK minimizedAffinity 12.0464869
REMARK minimizedRMSD -1
REMARK  0 active torsions:
REMARK  status: ('A' for Active; 'I' for Inactive)
ROOT
ATOM      1  O1  BZF d   1       4.044  -3.057  -5.206  0.00  0.00    -0.204 OA
ATOM      2  C2  BZF d   1       4.821  -3.883  -5.995  0.00  0.00     0.174 A 
ATOM      3  C3  BZF d   1       4.331  -5.139  -6.000  0.00  0.00    -0.012 A 
ATOM      4  C3A BZF d   1       3.123  -5.075  -5.236  0.00  0.00    -0.107 A 
ATOM      5  C4  BZF d   1       2.178  -5.999  -4.895  0.00  0.00     0.055 A 
ATOM      6  C5  BZF d   1       1.157  -5.630  -4.077  0.00  0.00    -0.016 A 
ATOM      7  C6  BZF d   1       1.054  -4.348  -3.578  0.00  0.00     0.022 A 
ATOM      8  C7  BZF d   1       1.965  -3.395  -3.892  0.00  0.00     0.029 A 
ATOM      9  C7A BZF d   1       2.980  -3.757  -4.745  0.00  0.00     0.058 A 
ENDROOT
TORSDOF 0
ENDMDL
