MODEL 1
REMARK minimizedAffinity 4.1009264
REMARK minimizedRMSD -1
REMARK  0 active torsions:
REMARK  status: ('A' for Active; 'I' for Inactive)
ROOT
ATOM      1  O1  BZF d   1       0.503  -2.104   1.719  0.00  0.00    -0.204 OA
ATOM      2  C2  BZF d   1       1.467  -1.128   1.555  0.00  0.00     0.174 A 
ATOM      3  C3  BZF d   1       1.577  -0.373   2.667  0.00  0.00    -0.012 A 
ATOM      4  C3A BZF d   1       0.687  -0.968   3.616  0.00  0.00    -0.107 A 
ATOM      5  C4  BZF d   1       0.366  -0.680   4.912  0.00  0.00     0.055 A 
ATOM      6  C5  BZF d   1      -0.596  -1.412   5.532  0.00  0.00    -0.016 A 
ATOM      7  C6  BZF d   1      -1.260  -2.435   4.887  0.00  0.00     0.022 A 
ATOM      8  C7  BZF d   1      -0.972  -2.762   3.604  0.00  0.00     0.029 A 
ATOM      9  C7A BZF d   1       0.023  -2.045   2.984  0.00  0.00     0.058 A 
ENDROOT
TORSDOF 0
ENDMDL
