MODEL 1
REMARK minimizedAffinity 13.272233
REMARK minimizedRMSD -1
REMARK  0 active torsions:
REMARK  status: ('A' for Active; 'I' for Inactive)
ROOT
ATOM      1  O1  BZF d   1      -0.181   2.544  -2.682  0.00  0.00    -0.204 OA
ATOM      2  C2  BZF d   1       0.661   2.582  -1.588  0.00  0.00     0.174 A 
ATOM      3  C3  BZF d   1      -0.044   2.699  -0.445  0.00  0.00    -0.012 A 
ATOM      4  C3A BZF d   1      -1.418   2.643  -0.843  0.00  0.00    -0.107 A 
ATOM      5  C4  BZF d   1      -2.597   2.691  -0.156  0.00  0.00     0.055 A 
ATOM      6  C5  BZF d   1      -3.766   2.685  -0.849  0.00  0.00    -0.016 A 
ATOM      7  C6  BZF d   1      -3.792   2.638  -2.227  0.00  0.00     0.022 A 
ATOM      8  C7  BZF d   1      -2.648   2.584  -2.952  0.00  0.00     0.029 A 
ATOM      9  C7A BZF d   1      -1.466   2.556  -2.253  0.00  0.00     0.058 A 
ENDROOT
TORSDOF 0
ENDMDL
