MODEL 1
REMARK minimizedAffinity 10.6484947
REMARK minimizedRMSD -1
REMARK  0 active torsions:
REMARK  status: ('A' for Active; 'I' for Inactive)
ROOT
ATOM      1  O1  BZF d   1       2.791  -5.137  -4.789  0.00  0.00    -0.204 OA
ATOM      2  C2  BZF d   1       2.361  -5.729  -5.960  0.00  0.00     0.174 A 
ATOM      3  C3  BZF d   1       1.030  -5.948  -5.925  0.00  0.00    -0.012 A 
ATOM      4  C3A BZF d   1       0.588  -5.379  -4.689  0.00  0.00    -0.107 A 
ATOM      5  C4  BZF d   1      -0.635  -5.267  -4.091  0.00  0.00     0.055 A 
ATOM      6  C5  BZF d   1      -0.715  -4.720  -2.849  0.00  0.00    -0.016 A 
ATOM      7  C6  BZF d   1       0.405  -4.281  -2.175  0.00  0.00     0.022 A 
ATOM      8  C7  BZF d   1       1.639  -4.367  -2.729  0.00  0.00     0.029 A 
ATOM      9  C7A BZF d   1       1.720  -4.888  -3.998  0.00  0.00     0.058 A 
ENDROOT
TORSDOF 0
ENDMDL
