MODEL 1
REMARK minimizedAffinity 13.6661091
REMARK minimizedRMSD -1
REMARK  0 active torsions:
REMARK  status: ('A' for Active; 'I' for Inactive)
ROOT
ATOM      1  O1  BZF d   1      -2.487  -5.932   0.918  0.00  0.00    -0.204 OA
ATOM      2  C2  BZF d   1      -3.268  -5.983  -0.220  0.00  0.00     0.174 A 
ATOM      3  C3  BZF d   1      -4.158  -4.970  -0.235  0.00  0.00    -0.012 A 
ATOM      4  C3A BZF d   1      -3.857  -4.187   0.924  0.00  0.00    -0.107 A 
ATOM      5  C4  BZF d   1      -4.385  -3.041   1.446  0.00  0.00     0.055 A 
ATOM      6  C5  BZF d   1      -3.911  -2.575   2.631  0.00  0.00    -0.016 A 
ATOM      7  C6  BZF d   1      -2.915  -3.232   3.323  0.00  0.00     0.022 A 
ATOM      8  C7  BZF d   1      -2.356  -4.370   2.843  0.00  0.00     0.029 A 
ATOM      9  C7A BZF d   1      -2.810  -4.825   1.629  0.00  0.00     0.058 A 
ENDROOT
TORSDOF 0
ENDMDL
