MODEL 1
REMARK minimizedAffinity 13.6708279
REMARK minimizedRMSD -1
REMARK  0 active torsions:
REMARK  status: ('A' for Active; 'I' for Inactive)
ROOT
ATOM      1  O1  BZF d   1       1.849  -0.145   3.059  0.00  0.00    -0.204 OA
ATOM      2  C2  BZF d   1       1.470  -0.714   1.858  0.00  0.00     0.174 A 
ATOM      3  C3  BZF d   1       0.307  -1.383   1.992  0.00  0.00    -0.012 A 
ATOM      4  C3A BZF d   1      -0.111  -1.146   3.340  0.00  0.00    -0.107 A 
ATOM      5  C4  BZF d   1      -1.200  -1.534   4.067  0.00  0.00     0.055 A 
ATOM      6  C5  BZF d   1      -1.272  -1.193   5.381  0.00  0.00    -0.016 A 
ATOM      7  C6  BZF d   1      -0.272  -0.471   6.000  0.00  0.00     0.022 A 
ATOM      8  C7  BZF d   1       0.825  -0.060   5.318  0.00  0.00     0.029 A 
ATOM      9  C7A BZF d   1       0.885  -0.374   3.982  0.00  0.00     0.058 A 
ENDROOT
TORSDOF 0
ENDMDL
