MODEL 1
REMARK minimizedAffinity 17.0756149
REMARK minimizedRMSD -1
REMARK  0 active torsions:
REMARK  status: ('A' for Active; 'I' for Inactive)
ROOT
ATOM      1  O1  BZF d   1       1.142   0.171   2.267  0.00  0.00    -0.204 OA
ATOM      2  C2  BZF d   1       1.557  -0.537   1.156  0.00  0.00     0.174 A 
ATOM      3  C3  BZF d   1       0.985  -1.757   1.125  0.00  0.00    -0.012 A 
ATOM      4  C3A BZF d   1       0.089  -1.781   2.240  0.00  0.00    -0.107 A 
ATOM      5  C4  BZF d   1      -0.777  -2.718   2.730  0.00  0.00     0.055 A 
ATOM      6  C5  BZF d   1      -1.452  -2.456   3.880  0.00  0.00    -0.016 A 
ATOM      7  C6  BZF d   1      -1.282  -1.273   4.568  0.00  0.00     0.022 A 
ATOM      8  C7  BZF d   1      -0.438  -0.312   4.120  0.00  0.00     0.029 A 
ATOM      9  C7A BZF d   1       0.221  -0.560   2.940  0.00  0.00     0.058 A 
ENDROOT
TORSDOF 0
ENDMDL
