MODEL 1
REMARK minimizedAffinity 7.96878433
REMARK minimizedRMSD -1
REMARK  0 active torsions:
REMARK  status: ('A' for Active; 'I' for Inactive)
ROOT
ATOM      1  O1  BZF d   1       1.296  -2.508   1.517  0.00  0.00    -0.204 OA
ATOM      2  C2  BZF d   1       0.456  -1.599   2.131  0.00  0.00     0.174 A 
ATOM      3  C3  BZF d   1       0.954  -0.350   2.039  0.00  0.00    -0.012 A 
ATOM      4  C3A BZF d   1       2.136  -0.473   1.243  0.00  0.00    -0.107 A 
ATOM      5  C4  BZF d   1       3.060   0.423   0.788  0.00  0.00     0.055 A 
ATOM      6  C5  BZF d   1       4.137  -0.031   0.094  0.00  0.00    -0.016 A 
ATOM      7  C6  BZF d   1       4.323  -1.375  -0.158  0.00  0.00     0.022 A 
ATOM      8  C7  BZF d   1       3.431  -2.302   0.268  0.00  0.00     0.029 A 
ATOM      9  C7A BZF d   1       2.325  -1.842   0.941  0.00  0.00     0.058 A 
ENDROOT
TORSDOF 0
ENDMDL
