MODEL 1
REMARK minimizedAffinity 16.7976418
REMARK minimizedRMSD -1
REMARK  0 active torsions:
REMARK  status: ('A' for Active; 'I' for Inactive)
ROOT
ATOM      1  O1  BZF d   1      -0.678   4.822   0.787  0.00  0.00    -0.204 OA
ATOM      2  C2  BZF d   1       0.040   6.000   0.862  0.00  0.00     0.174 A 
ATOM      3  C3  BZF d   1       1.160   5.926   0.114  0.00  0.00    -0.012 A 
ATOM      4  C3A BZF d   1       1.094   4.654  -0.538  0.00  0.00    -0.107 A 
ATOM      5  C4  BZF d   1       1.909   4.010  -1.424  0.00  0.00     0.055 A 
ATOM      6  C5  BZF d   1       1.596   2.745  -1.811  0.00  0.00    -0.016 A 
ATOM      7  C6  BZF d   1       0.479   2.094  -1.329  0.00  0.00     0.022 A 
ATOM      8  C7  BZF d   1      -0.363   2.695  -0.453  0.00  0.00     0.029 A 
ATOM      9  C7A BZF d   1      -0.067   3.985  -0.085  0.00  0.00     0.058 A 
ENDROOT
TORSDOF 0
ENDMDL
