MODEL 1
REMARK minimizedAffinity 4.0055542
REMARK minimizedRMSD -1
REMARK  0 active torsions:
REMARK  status: ('A' for Active; 'I' for Inactive)
ROOT
ATOM      1  O1  BZF d   1      -5.651  -6.000   3.926  0.00  0.00    -0.204 OA
ATOM      2  C2  BZF d   1      -5.443  -5.060   4.918  0.00  0.00     0.174 A 
ATOM      3  C3  BZF d   1      -4.951  -3.917   4.398  0.00  0.00    -0.012 A 
ATOM      4  C3A BZF d   1      -4.931  -4.125   2.983  0.00  0.00    -0.107 A 
ATOM      5  C4  BZF d   1      -4.560  -3.346   1.924  0.00  0.00     0.055 A 
ATOM      6  C5  BZF d   1      -4.594  -3.872   0.672  0.00  0.00    -0.016 A 
ATOM      7  C6  BZF d   1      -4.987  -5.175   0.443  0.00  0.00     0.022 A 
ATOM      8  C7  BZF d   1      -5.368  -5.985   1.460  0.00  0.00     0.029 A 
ATOM      9  C7A BZF d   1      -5.367  -5.445   2.723  0.00  0.00     0.058 A 
ENDROOT
TORSDOF 0
ENDMDL
