MODEL 1
REMARK minimizedAffinity -3.71988487
REMARK minimizedRMSD -1
REMARK  0 active torsions:
REMARK  status: ('A' for Active; 'I' for Inactive)
ROOT
ATOM      1  O1  BZF d   1       2.670  -0.374   2.675  0.00  0.00    -0.204 OA
ATOM      2  C2  BZF d   1       1.671   0.110   3.498  0.00  0.00     0.174 A 
ATOM      3  C3  BZF d   1       0.557  -0.642   3.391  0.00  0.00    -0.012 A 
ATOM      4  C3A BZF d   1       0.909  -1.714   2.511  0.00  0.00    -0.107 A 
ATOM      5  C4  BZF d   1       0.229  -2.796   2.030  0.00  0.00     0.055 A 
ATOM      6  C5  BZF d   1       0.838  -3.612   1.130  0.00  0.00    -0.016 A 
ATOM      7  C6  BZF d   1       2.123  -3.375   0.687  0.00  0.00     0.022 A 
ATOM      8  C7  BZF d   1       2.839  -2.317   1.140  0.00  0.00     0.029 A 
ATOM      9  C7A BZF d   1       2.238  -1.508   2.074  0.00  0.00     0.058 A 
ENDROOT
TORSDOF 0
ENDMDL
