MODEL 1
REMARK minimizedAffinity 10.2852182
REMARK minimizedRMSD -1
REMARK  0 active torsions:
REMARK  status: ('A' for Active; 'I' for Inactive)
ROOT
ATOM      1  O1  BZF d   1       5.998  -2.562  -2.284  0.00  0.00    -0.204 OA
ATOM      2  C2  BZF d   1       5.303  -1.510  -1.718  0.00  0.00     0.174 A 
ATOM      3  C3  BZF d   1       4.487  -0.933  -2.623  0.00  0.00    -0.012 A 
ATOM      4  C3A BZF d   1       4.616  -1.728  -3.806  0.00  0.00    -0.107 A 
ATOM      5  C4  BZF d   1       4.043  -1.669  -5.044  0.00  0.00     0.055 A 
ATOM      6  C5  BZF d   1       4.438  -2.552  -5.998  0.00  0.00    -0.016 A 
ATOM      7  C6  BZF d   1       5.406  -3.503  -5.751  0.00  0.00     0.022 A 
ATOM      8  C7  BZF d   1       6.000  -3.604  -4.536  0.00  0.00     0.029 A 
ATOM      9  C7A BZF d   1       5.578  -2.734  -3.560  0.00  0.00     0.058 A 
ENDROOT
TORSDOF 0
ENDMDL
