MODEL 1
REMARK minimizedAffinity 16.9640923
REMARK minimizedRMSD -1
REMARK  0 active torsions:
REMARK  status: ('A' for Active; 'I' for Inactive)
ROOT
ATOM      1  O1  BZF d   1       4.112  -1.563  -1.233  0.00  0.00    -0.204 OA
ATOM      2  C2  BZF d   1       4.340  -0.704  -2.291  0.00  0.00     0.174 A 
ATOM      3  C3  BZF d   1       4.127   0.576  -1.922  0.00  0.00    -0.012 A 
ATOM      4  C3A BZF d   1       3.831   0.521  -0.523  0.00  0.00    -0.107 A 
ATOM      5  C4  BZF d   1       3.545   1.471   0.414  0.00  0.00     0.055 A 
ATOM      6  C5  BZF d   1       3.231   1.080   1.677  0.00  0.00    -0.016 A 
ATOM      7  C6  BZF d   1       3.190  -0.251   2.036  0.00  0.00     0.022 A 
ATOM      8  C7  BZF d   1       3.471  -1.230   1.142  0.00  0.00     0.029 A 
ATOM      9  C7A BZF d   1       3.821  -0.837  -0.127  0.00  0.00     0.058 A 
ENDROOT
TORSDOF 0
ENDMDL
