MODEL 1
REMARK minimizedAffinity 17.868309
REMARK minimizedRMSD -1
REMARK  0 active torsions:
REMARK  status: ('A' for Active; 'I' for Inactive)
ROOT
ATOM      1  O1  BZF d   1      -1.700   2.306  -2.973  0.00  0.00    -0.204 OA
ATOM      2  C2  BZF d   1      -2.099   3.316  -3.827  0.00  0.00     0.174 A 
ATOM      3  C3  BZF d   1      -1.547   4.493  -3.467  0.00  0.00    -0.012 A 
ATOM      4  C3A BZF d   1      -0.681   4.182  -2.370  0.00  0.00    -0.107 A 
ATOM      5  C4  BZF d   1       0.155   4.932  -1.593  0.00  0.00     0.055 A 
ATOM      6  C5  BZF d   1       0.804   4.337  -0.558  0.00  0.00    -0.016 A 
ATOM      7  C6  BZF d   1       0.637   2.999  -0.268  0.00  0.00     0.022 A 
ATOM      8  C7  BZF d   1      -0.178   2.214  -1.014  0.00  0.00     0.029 A 
ATOM      9  C7A BZF d   1      -0.810   2.804  -2.081  0.00  0.00     0.058 A 
ENDROOT
TORSDOF 0
ENDMDL
