MODEL 1
REMARK minimizedAffinity 13.8443308
REMARK minimizedRMSD -1
REMARK  0 active torsions:
REMARK  status: ('A' for Active; 'I' for Inactive)
ROOT
ATOM      1  O1  BZF d   1       2.538   3.403   1.490  0.00  0.00    -0.204 OA
ATOM      2  C2  BZF d   1       2.401   2.080   1.115  0.00  0.00     0.174 A 
ATOM      3  C3  BZF d   1       1.448   1.946   0.171  0.00  0.00    -0.012 A 
ATOM      4  C3A BZF d   1       1.022   3.280  -0.125  0.00  0.00    -0.107 A 
ATOM      5  C4  BZF d   1       0.106   3.802  -0.994  0.00  0.00     0.055 A 
ATOM      6  C5  BZF d   1      -0.123   5.141  -0.985  0.00  0.00    -0.016 A 
ATOM      7  C6  BZF d   1       0.540   5.986  -0.120  0.00  0.00     0.022 A 
ATOM      8  C7  BZF d   1       1.461   5.515   0.757  0.00  0.00     0.029 A 
ATOM      9  C7A BZF d   1       1.719   4.166   0.728  0.00  0.00     0.058 A 
ENDROOT
TORSDOF 0
ENDMDL
