MODEL 1
REMARK minimizedAffinity 10.5059242
REMARK minimizedRMSD -1
REMARK  0 active torsions:
REMARK  status: ('A' for Active; 'I' for Inactive)
ROOT
ATOM      1  C   UNL d   1      -3.153   0.826  -2.416  0.00  0.00     0.078 C 
ATOM      2  C1  UNL d   1      -3.453   2.155  -3.042  0.00  0.00    -0.077 A 
ATOM      3  C2  UNL d   1      -3.135   2.409  -4.382  0.00  0.00    -0.001 A 
ATOM      4  C3  UNL d   1      -3.410   3.654  -4.949  0.00  0.00     0.003 A 
ATOM      5  C4  UNL d   1      -4.004   4.656  -4.183  0.00  0.00    -0.005 A 
ATOM      6  C5  UNL d   1      -4.321   4.413  -2.848  0.00  0.00     0.003 A 
ATOM      7  C6  UNL d   1      -4.047   3.168  -2.279  0.00  0.00    -0.001 A 
ENDROOT
TORSDOF 0
ENDMDL
