MODEL 1
REMARK minimizedAffinity 4.33030128
REMARK minimizedRMSD -1
REMARK  0 active torsions:
REMARK  status: ('A' for Active; 'I' for Inactive)
ROOT
ATOM      1  C   UNL d   1       3.008  -3.229   2.312  0.00  0.00     0.078 C 
ATOM      2  C1  UNL d   1       2.541  -2.624   3.602  0.00  0.00    -0.077 A 
ATOM      3  C2  UNL d   1       2.644  -3.328   4.808  0.00  0.00    -0.001 A 
ATOM      4  C3  UNL d   1       2.197  -2.757   6.000  0.00  0.00     0.003 A 
ATOM      5  C4  UNL d   1       1.642  -1.478   5.998  0.00  0.00    -0.005 A 
ATOM      6  C5  UNL d   1       1.533  -0.771   4.803  0.00  0.00     0.003 A 
ATOM      7  C6  UNL d   1       1.980  -1.341   3.610  0.00  0.00    -0.001 A 
ENDROOT
TORSDOF 0
ENDMDL
