MODEL 1
REMARK minimizedAffinity 8.96951771
REMARK minimizedRMSD -1
REMARK  0 active torsions:
REMARK  status: ('A' for Active; 'I' for Inactive)
ROOT
ATOM      1  C   UNL d   1      -3.064   0.787  -2.606  0.00  0.00     0.078 C 
ATOM      2  C1  UNL d   1      -2.089   0.555  -1.490  0.00  0.00    -0.077 A 
ATOM      3  C2  UNL d   1      -2.299  -0.461  -0.550  0.00  0.00    -0.001 A 
ATOM      4  C3  UNL d   1      -1.388  -0.660   0.489  0.00  0.00     0.003 A 
ATOM      5  C4  UNL d   1      -0.263   0.155   0.599  0.00  0.00    -0.005 A 
ATOM      6  C5  UNL d   1      -0.048   1.170  -0.331  0.00  0.00     0.003 A 
ATOM      7  C6  UNL d   1      -0.957   1.370  -1.371  0.00  0.00    -0.001 A 
ENDROOT
TORSDOF 0
ENDMDL
