MODEL 1
REMARK minimizedAffinity 7.66887379
REMARK minimizedRMSD -1
REMARK  0 active torsions:
REMARK  status: ('A' for Active; 'I' for Inactive)
ROOT
ATOM      1  C   UNL d   1      -2.625   0.833  -1.981  0.00  0.00     0.078 C 
ATOM      2  C1  UNL d   1      -3.217   2.048  -2.632  0.00  0.00    -0.077 A 
ATOM      3  C2  UNL d   1      -3.079   2.268  -4.008  0.00  0.00    -0.001 A 
ATOM      4  C3  UNL d   1      -3.626   3.408  -4.599  0.00  0.00     0.003 A 
ATOM      5  C4  UNL d   1      -4.314   4.337  -3.821  0.00  0.00    -0.005 A 
ATOM      6  C5  UNL d   1      -4.455   4.128  -2.451  0.00  0.00     0.003 A 
ATOM      7  C6  UNL d   1      -3.908   2.989  -1.858  0.00  0.00    -0.001 A 
ENDROOT
TORSDOF 0
ENDMDL
