MODEL 1
REMARK minimizedAffinity 6.61328983
REMARK minimizedRMSD -1
REMARK  0 active torsions:
REMARK  status: ('A' for Active; 'I' for Inactive)
ROOT
ATOM      1  C   UNL d   1      -2.698   2.052  -2.462  0.00  0.00     0.078 C 
ATOM      2  C1  UNL d   1      -3.756   3.093  -2.680  0.00  0.00    -0.077 A 
ATOM      3  C2  UNL d   1      -5.022   2.968  -2.096  0.00  0.00    -0.001 A 
ATOM      4  C3  UNL d   1      -6.000   3.940  -2.316  0.00  0.00     0.003 A 
ATOM      5  C4  UNL d   1      -5.722   5.043  -3.120  0.00  0.00    -0.005 A 
ATOM      6  C5  UNL d   1      -4.465   5.175  -3.707  0.00  0.00     0.003 A 
ATOM      7  C6  UNL d   1      -3.486   4.204  -3.489  0.00  0.00    -0.001 A 
ENDROOT
TORSDOF 0
ENDMDL
