MODEL 1
REMARK minimizedAffinity 9.12141418
REMARK minimizedRMSD -1
REMARK  0 active torsions:
REMARK  status: ('A' for Active; 'I' for Inactive)
ROOT
ATOM      1  C   UNL d   1       1.075  -1.073   2.258  0.00  0.00     0.078 C 
ATOM      2  C1  UNL d   1       1.336  -1.758   3.566  0.00  0.00    -0.077 A 
ATOM      3  C2  UNL d   1       0.889  -1.205   4.772  0.00  0.00    -0.001 A 
ATOM      4  C3  UNL d   1       1.148  -1.849   5.983  0.00  0.00     0.003 A 
ATOM      5  C4  UNL d   1       1.855  -3.049   5.999  0.00  0.00    -0.005 A 
ATOM      6  C5  UNL d   1       2.306  -3.607   4.805  0.00  0.00     0.003 A 
ATOM      7  C6  UNL d   1       2.048  -2.964   3.593  0.00  0.00    -0.001 A 
ENDROOT
TORSDOF 0
ENDMDL
