MODEL 1
REMARK minimizedAffinity 1.58077967
REMARK minimizedRMSD -1
REMARK  0 active torsions:
REMARK  status: ('A' for Active; 'I' for Inactive)
ROOT
ATOM      1  N1  IND d   1       1.965   5.999   5.913  0.00  0.00    -0.196 N 
ATOM      2  C2  IND d   1       0.848   5.994   5.124  0.00  0.00     0.054 A 
ATOM      3  C3  IND d   1       1.196   6.000   3.817  0.00  0.00    -0.031 A 
ATOM      4  C4  IND d   1       3.536   5.914   2.747  0.00  0.00     0.051 A 
ATOM      5  C5  IND d   1       4.866   5.944   3.061  0.00  0.00    -0.031 A 
ATOM      6  C6  IND d   1       5.305   5.991   4.368  0.00  0.00     0.015 A 
ATOM      7  C7  IND d   1       4.428   6.000   5.415  0.00  0.00    -0.016 A 
ATOM      8  C8  IND d   1       3.077   5.977   5.100  0.00  0.00    -0.047 A 
ATOM      9  C9  IND d   1       2.624   5.972   3.774  0.00  0.00    -0.096 A 
ATOM     10  HN1 IND d   1       1.971   6.014   6.773  0.00  0.00     0.298 HD
ENDROOT
TORSDOF 0
ENDMDL
