MODEL 1
REMARK minimizedAffinity 7.63231945
REMARK minimizedRMSD -1
REMARK  0 active torsions:
REMARK  status: ('A' for Active; 'I' for Inactive)
ROOT
ATOM      1  N1  IND d   1       0.810  -1.065   0.061  0.00  0.00    -0.196 N 
ATOM      2  C2  IND d   1       0.264  -0.631  -1.114  0.00  0.00     0.054 A 
ATOM      3  C3  IND d   1      -0.953  -0.085  -0.893  0.00  0.00    -0.031 A 
ATOM      4  C4  IND d   1      -2.199   0.289   1.329  0.00  0.00     0.051 A 
ATOM      5  C5  IND d   1      -2.117   0.026   2.667  0.00  0.00    -0.031 A 
ATOM      6  C6  IND d   1      -1.032  -0.625   3.217  0.00  0.00     0.015 A 
ATOM      7  C7  IND d   1       0.022  -1.029   2.447  0.00  0.00    -0.016 A 
ATOM      8  C8  IND d   1      -0.061  -0.770   1.086  0.00  0.00    -0.047 A 
ATOM      9  C9  IND d   1      -1.179  -0.147   0.516  0.00  0.00    -0.096 A 
ATOM     10  HN1 IND d   1       1.571  -1.458   0.146  0.00  0.00     0.298 HD
ENDROOT
TORSDOF 0
ENDMDL
