MODEL 1
REMARK minimizedAffinity -0.535566032
REMARK minimizedRMSD -1
REMARK  0 active torsions:
REMARK  status: ('A' for Active; 'I' for Inactive)
ROOT
ATOM      1  N1  IND d   1       0.509  -0.909   0.538  0.00  0.00    -0.196 N 
ATOM      2  C2  IND d   1      -0.485  -0.030   0.865  0.00  0.00     0.054 A 
ATOM      3  C3  IND d   1      -1.263  -0.541   1.845  0.00  0.00    -0.031 A 
ATOM      4  C4  IND d   1      -1.025  -2.759   3.132  0.00  0.00     0.051 A 
ATOM      5  C5  IND d   1      -0.292  -3.912   3.165  0.00  0.00    -0.031 A 
ATOM      6  C6  IND d   1       0.769  -4.126   2.308  0.00  0.00     0.015 A 
ATOM      7  C7  IND d   1       1.145  -3.186   1.391  0.00  0.00    -0.016 A 
ATOM      8  C8  IND d   1       0.398  -2.017   1.350  0.00  0.00    -0.047 A 
ATOM      9  C9  IND d   1      -0.706  -1.812   2.187  0.00  0.00    -0.096 A 
ATOM     10  HN1 IND d   1       1.104  -0.790  -0.071  0.00  0.00     0.298 HD
ENDROOT
TORSDOF 0
ENDMDL
