MODEL 1
REMARK minimizedAffinity -1.83711934
REMARK minimizedRMSD -1
REMARK  0 active torsions:
REMARK  status: ('A' for Active; 'I' for Inactive)
ROOT
ATOM      1  N1  IND d   1      -0.002  -0.490   0.757  0.00  0.00    -0.196 N 
ATOM      2  C2  IND d   1      -1.204   0.037   1.140  0.00  0.00     0.054 A 
ATOM      3  C3  IND d   1      -1.841  -0.807   1.982  0.00  0.00    -0.031 A 
ATOM      4  C4  IND d   1      -1.051  -3.059   2.947  0.00  0.00     0.051 A 
ATOM      5  C5  IND d   1      -0.037  -3.972   2.862  0.00  0.00    -0.031 A 
ATOM      6  C6  IND d   1       1.064  -3.764   2.057  0.00  0.00     0.015 A 
ATOM      7  C7  IND d   1       1.198  -2.627   1.312  0.00  0.00    -0.016 A 
ATOM      8  C8  IND d   1       0.167  -1.702   1.390  0.00  0.00    -0.047 A 
ATOM      9  C9  IND d   1      -0.973  -1.926   2.173  0.00  0.00    -0.096 A 
ATOM     10  HN1 IND d   1       0.554  -0.126   0.212  0.00  0.00     0.298 HD
ENDROOT
TORSDOF 0
ENDMDL
