MODEL 1
REMARK minimizedAffinity 3.55142093
REMARK minimizedRMSD -1
REMARK  0 active torsions:
REMARK  status: ('A' for Active; 'I' for Inactive)
ROOT
ATOM      1  N1  IND d   1       4.208  -4.465   0.570  0.00  0.00    -0.196 N 
ATOM      2  C2  IND d   1       5.019  -5.415   1.125  0.00  0.00     0.054 A 
ATOM      3  C3  IND d   1       4.406  -6.000   2.179  0.00  0.00    -0.031 A 
ATOM      4  C4  IND d   1       2.033  -5.627   3.104  0.00  0.00     0.051 A 
ATOM      5  C5  IND d   1       0.929  -4.836   2.951  0.00  0.00    -0.031 A 
ATOM      6  C6  IND d   1       0.859  -3.863   1.975  0.00  0.00     0.015 A 
ATOM      7  C7  IND d   1       1.891  -3.652   1.104  0.00  0.00    -0.016 A 
ATOM      8  C8  IND d   1       3.016  -4.448   1.261  0.00  0.00    -0.047 A 
ATOM      9  C9  IND d   1       3.110  -5.408   2.277  0.00  0.00    -0.096 A 
ATOM     10  HN1 IND d   1       4.408  -3.963  -0.098  0.00  0.00     0.298 HD
ENDROOT
TORSDOF 0
ENDMDL
