MODEL 1
REMARK minimizedAffinity -1.37531221
REMARK minimizedRMSD -1
REMARK  0 active torsions:
REMARK  status: ('A' for Active; 'I' for Inactive)
ROOT
ATOM      1  N1  IND d   1      -0.082  -2.013   1.085  0.00  0.00    -0.196 N 
ATOM      2  C2  IND d   1       1.226  -2.011   0.689  0.00  0.00     0.054 A 
ATOM      3  C3  IND d   1       1.910  -2.990   1.323  0.00  0.00    -0.031 A 
ATOM      4  C4  IND d   1       1.061  -4.775   2.973  0.00  0.00     0.051 A 
ATOM      5  C5  IND d   1      -0.053  -5.157   3.667  0.00  0.00    -0.031 A 
ATOM      6  C6  IND d   1      -1.258  -4.499   3.531  0.00  0.00     0.015 A 
ATOM      7  C7  IND d   1      -1.398  -3.437   2.683  0.00  0.00    -0.016 A 
ATOM      8  C8  IND d   1      -0.268  -3.041   1.982  0.00  0.00    -0.047 A 
ATOM      9  C9  IND d   1       0.969  -3.678   2.148  0.00  0.00    -0.096 A 
ATOM     10  HN1 IND d   1      -0.688  -1.463   0.818  0.00  0.00     0.298 HD
ENDROOT
TORSDOF 0
ENDMDL
