MODEL 1
REMARK minimizedAffinity -2.37480378
REMARK minimizedRMSD -1
REMARK  0 active torsions:
REMARK  status: ('A' for Active; 'I' for Inactive)
ROOT
ATOM      1  N1  IND d   1       0.880  -1.378  -0.305  0.00  0.00    -0.196 N 
ATOM      2  C2  IND d   1      -0.022  -0.369  -0.111  0.00  0.00     0.054 A 
ATOM      3  C3  IND d   1      -0.510  -0.410   1.149  0.00  0.00    -0.031 A 
ATOM      4  C4  IND d   1       0.107  -1.982   3.092  0.00  0.00     0.051 A 
ATOM      5  C5  IND d   1       0.855  -3.086   3.388  0.00  0.00    -0.031 A 
ATOM      6  C6  IND d   1       1.669  -3.689   2.450  0.00  0.00     0.015 A 
ATOM      7  C7  IND d   1       1.773  -3.199   1.178  0.00  0.00    -0.016 A 
ATOM      8  C8  IND d   1       1.009  -2.082   0.872  0.00  0.00    -0.047 A 
ATOM      9  C9  IND d   1       0.149  -1.492   1.808  0.00  0.00    -0.096 A 
ATOM     10  HN1 IND d   1       1.297  -1.545  -1.038  0.00  0.00     0.298 HD
ENDROOT
TORSDOF 0
ENDMDL
