MODEL 1
REMARK minimizedAffinity -1.21360886
REMARK minimizedRMSD -1
REMARK  0 active torsions:
REMARK  status: ('A' for Active; 'I' for Inactive)
ROOT
ATOM      1  N1  IND d   1       0.365  -1.053   0.095  0.00  0.00    -0.196 N 
ATOM      2  C2  IND d   1      -0.635  -0.138   0.276  0.00  0.00     0.054 A 
ATOM      3  C3  IND d   1      -1.229  -0.321   1.476  0.00  0.00    -0.031 A 
ATOM      4  C4  IND d   1      -0.656  -1.995   3.346  0.00  0.00     0.051 A 
ATOM      5  C5  IND d   1       0.155  -3.058   3.629  0.00  0.00    -0.031 A 
ATOM      6  C6  IND d   1       1.098  -3.515   2.731  0.00  0.00     0.015 A 
ATOM      7  C7  IND d   1       1.274  -2.916   1.516  0.00  0.00    -0.016 A 
ATOM      8  C8  IND d   1       0.447  -1.840   1.223  0.00  0.00    -0.047 A 
ATOM      9  C9  IND d   1      -0.541  -1.399   2.113  0.00  0.00    -0.096 A 
ATOM     10  HN1 IND d   1       0.858  -1.125  -0.605  0.00  0.00     0.298 HD
ENDROOT
TORSDOF 0
ENDMDL
