MODEL 1
REMARK minimizedAffinity 3.63895011
REMARK minimizedRMSD -1
REMARK  0 active torsions:
REMARK  status: ('A' for Active; 'I' for Inactive)
ROOT
ATOM      1  N1  IND d   1      -2.181  -2.191   2.652  0.00  0.00    -0.196 N 
ATOM      2  C2  IND d   1      -1.063  -2.669   3.276  0.00  0.00     0.054 A 
ATOM      3  C3  IND d   1       0.030  -1.983   2.874  0.00  0.00    -0.031 A 
ATOM      4  C4  IND d   1       0.202   0.031   1.280  0.00  0.00     0.051 A 
ATOM      5  C5  IND d   1      -0.545   0.804   0.436  0.00  0.00    -0.031 A 
ATOM      6  C6  IND d   1      -1.904   0.616   0.287  0.00  0.00     0.015 A 
ATOM      7  C7  IND d   1      -2.571  -0.349   0.988  0.00  0.00    -0.016 A 
ATOM      8  C8  IND d   1      -1.814  -1.140   1.840  0.00  0.00    -0.047 A 
ATOM      9  C9  IND d   1      -0.427  -0.982   1.963  0.00  0.00    -0.096 A 
ATOM     10  HN1 IND d   1      -2.979  -2.495   2.750  0.00  0.00     0.298 HD
ENDROOT
TORSDOF 0
ENDMDL
