MODEL 1
REMARK minimizedAffinity 2.00899553
REMARK minimizedRMSD -1
REMARK  1 active torsions:
REMARK  status: ('A' for Active; 'I' for Inactive)
REMARK    1  A    between atoms: C3_4  and  O_7 
ROOT
ATOM      1  C   UNL d   1       1.542  -0.001   0.742  0.00  0.00    -0.033 A 
ATOM      2  C1  UNL d   1       1.081   0.639   1.894  0.00  0.00     0.039 A 
ATOM      3  C2  UNL d   1      -0.217   0.408   2.352  0.00  0.00    -0.080 A 
ATOM      4  C3  UNL d   1      -1.044  -0.465   1.650  0.00  0.00     0.150 A 
ATOM      5  C4  UNL d   1      -0.590  -1.110   0.504  0.00  0.00    -0.007 A 
ATOM      6  C5  UNL d   1       0.707  -0.877   0.048  0.00  0.00     0.039 A 
ENDROOT
BRANCH   4   7
ATOM      7  O   UNL d   1      -2.320  -0.719   2.056  0.00  0.00    -0.526 OA
ATOM      8  H5  UNL d   1      -2.505  -0.182   2.844  0.00  0.00     0.418 HD
ENDBRANCH   4   7
TORSDOF 1
ENDMDL
