MODEL 1
REMARK minimizedAffinity -1.26103437
REMARK minimizedRMSD -1
REMARK  1 active torsions:
REMARK  status: ('A' for Active; 'I' for Inactive)
REMARK    1  A    between atoms: C3_4  and  O_7 
ROOT
ATOM      1  C   UNL d   1       0.144   0.017   1.681  0.00  0.00    -0.033 A 
ATOM      2  C1  UNL d   1       0.191  -0.788   0.541  0.00  0.00     0.039 A 
ATOM      3  C2  UNL d   1       0.082  -0.213  -0.727  0.00  0.00    -0.080 A 
ATOM      4  C3  UNL d   1      -0.073   1.166  -0.841  0.00  0.00     0.150 A 
ATOM      5  C4  UNL d   1      -0.116   1.974   0.290  0.00  0.00    -0.007 A 
ATOM      6  C5  UNL d   1      -0.008   1.398   1.555  0.00  0.00     0.039 A 
ENDROOT
BRANCH   4   7
ATOM      7  O   UNL d   1      -0.188   1.772  -2.056  0.00  0.00    -0.526 OA
ATOM      8  H5  UNL d   1      -0.170   1.086  -2.745  0.00  0.00     0.418 HD
ENDBRANCH   4   7
TORSDOF 1
ENDMDL
