MODEL 1
REMARK minimizedAffinity -2.17340517
REMARK minimizedRMSD -1
REMARK  1 active torsions:
REMARK  status: ('A' for Active; 'I' for Inactive)
REMARK    1  A    between atoms: C3_4  and  O_7 
ROOT
ATOM      1  C   UNL d   1       0.338   0.087  -1.487  0.00  0.00    -0.033 A 
ATOM      2  C1  UNL d   1      -0.389   1.205  -1.900  0.00  0.00     0.039 A 
ATOM      3  C2  UNL d   1      -0.803   2.156  -0.965  0.00  0.00    -0.080 A 
ATOM      4  C3  UNL d   1      -0.482   1.978   0.378  0.00  0.00     0.150 A 
ATOM      5  C4  UNL d   1       0.245   0.869   0.796  0.00  0.00    -0.007 A 
ATOM      6  C5  UNL d   1       0.657  -0.080  -0.139  0.00  0.00     0.039 A 
ENDROOT
BRANCH   4   7
ATOM      7  O   UNL d   1      -0.868   2.877   1.327  0.00  0.00    -0.526 OA
ATOM      8  H5  UNL d   1      -1.388   3.576   0.896  0.00  0.00     0.418 HD
ENDBRANCH   4   7
TORSDOF 1
ENDMDL
