MODEL 1
REMARK minimizedAffinity -4.59454107
REMARK minimizedRMSD -1
REMARK  1 active torsions:
REMARK  status: ('A' for Active; 'I' for Inactive)
REMARK    1  A    between atoms: C3_4  and  O_7 
ROOT
ATOM      1  C   UNL d   1      -0.919   2.385   1.305  0.00  0.00    -0.033 A 
ATOM      2  C1  UNL d   1      -0.380   1.274   1.956  0.00  0.00     0.039 A 
ATOM      3  C2  UNL d   1       0.155   0.219   1.214  0.00  0.00    -0.080 A 
ATOM      4  C3  UNL d   1       0.146   0.288  -0.176  0.00  0.00     0.150 A 
ATOM      5  C4  UNL d   1      -0.386   1.394  -0.831  0.00  0.00    -0.007 A 
ATOM      6  C5  UNL d   1      -0.921   2.446  -0.089  0.00  0.00     0.039 A 
ENDROOT
BRANCH   4   7
ATOM      7  O   UNL d   1       0.652  -0.719  -0.943  0.00  0.00    -0.526 OA
ATOM      8  H5  UNL d   1       0.958  -1.429  -0.355  0.00  0.00     0.418 HD
ENDBRANCH   4   7
TORSDOF 1
ENDMDL
