MODEL 1
REMARK minimizedAffinity 0.439168602
REMARK minimizedRMSD -1
REMARK  0 active torsions:
REMARK  status: ('A' for Active; 'I' for Inactive)
ROOT
ATOM      1  N1  IND d   1       0.597   2.939  -0.217  0.00  0.00    -0.196 N 
ATOM      2  C2  IND d   1       1.621   2.033  -0.228  0.00  0.00     0.054 A 
ATOM      3  C3  IND d   1       2.531   2.339   0.724  0.00  0.00    -0.031 A 
ATOM      4  C4  IND d   1       2.491   4.222   2.479  0.00  0.00     0.051 A 
ATOM      5  C5  IND d   1       1.779   5.324   2.860  0.00  0.00    -0.031 A 
ATOM      6  C6  IND d   1       0.611   5.694   2.225  0.00  0.00     0.015 A 
ATOM      7  C7  IND d   1       0.104   4.965   1.186  0.00  0.00    -0.016 A 
ATOM      8  C8  IND d   1       0.829   3.849   0.791  0.00  0.00    -0.047 A 
ATOM      9  C9  IND d   1       2.037   3.494   1.405  0.00  0.00    -0.096 A 
ATOM     10  HN1 IND d   1      -0.077   2.941  -0.750  0.00  0.00     0.298 HD
ENDROOT
TORSDOF 0
ENDMDL
