MODEL 1
REMARK minimizedAffinity 17.1584644
REMARK minimizedRMSD -1
REMARK  0 active torsions:
REMARK  status: ('A' for Active; 'I' for Inactive)
ROOT
ATOM      1  N1  IND d   1       2.742   0.452  -1.114  0.00  0.00    -0.196 N 
ATOM      2  C2  IND d   1       2.454   0.053   0.161  0.00  0.00     0.054 A 
ATOM      3  C3  IND d   1       3.353   0.570   1.030  0.00  0.00    -0.031 A 
ATOM      4  C4  IND d   1       5.316   2.175   0.589  0.00  0.00     0.051 A 
ATOM      5  C5  IND d   1       5.999   2.790  -0.423  0.00  0.00    -0.031 A 
ATOM      6  C6  IND d   1       5.621   2.656  -1.743  0.00  0.00     0.015 A 
ATOM      7  C7  IND d   1       4.536   1.909  -2.101  0.00  0.00    -0.016 A 
ATOM      8  C8  IND d   1       3.844   1.277  -1.077  0.00  0.00    -0.047 A 
ATOM      9  C9  IND d   1       4.248   1.374   0.261  0.00  0.00    -0.096 A 
ATOM     10  HN1 IND d   1       2.308   0.225  -1.821  0.00  0.00     0.298 HD
ENDROOT
TORSDOF 0
ENDMDL
