MODEL 1
REMARK minimizedAffinity 14.6619349
REMARK minimizedRMSD -1
REMARK  0 active torsions:
REMARK  status: ('A' for Active; 'I' for Inactive)
ROOT
ATOM      1  N1  IND d   1       5.226  -0.861   6.000  0.00  0.00    -0.196 N 
ATOM      2  C2  IND d   1       5.998  -1.559   5.113  0.00  0.00     0.054 A 
ATOM      3  C3  IND d   1       5.437  -1.538   3.883  0.00  0.00    -0.031 A 
ATOM      4  C4  IND d   1       3.308  -0.336   3.076  0.00  0.00     0.051 A 
ATOM      5  C5  IND d   1       2.248   0.397   3.530  0.00  0.00    -0.031 A 
ATOM      6  C6  IND d   1       2.125   0.758   4.856  0.00  0.00     0.015 A 
ATOM      7  C7  IND d   1       3.068   0.407   5.780  0.00  0.00    -0.016 A 
ATOM      8  C8  IND d   1       4.142  -0.344   5.325  0.00  0.00    -0.047 A 
ATOM      9  C9  IND d   1       4.251  -0.749   3.988  0.00  0.00    -0.096 A 
ATOM     10  HN1 IND d   1       5.390  -0.763   6.838  0.00  0.00     0.298 HD
ENDROOT
TORSDOF 0
ENDMDL
