MODEL 1
REMARK minimizedAffinity 8.84414577
REMARK minimizedRMSD -1
REMARK  0 active torsions:
REMARK  status: ('A' for Active; 'I' for Inactive)
ROOT
ATOM      1  N1  IND d   1       3.396   0.921   1.413  0.00  0.00    -0.196 N 
ATOM      2  C2  IND d   1       2.425   0.243   0.729  0.00  0.00     0.054 A 
ATOM      3  C3  IND d   1       2.601   0.387  -0.604  0.00  0.00    -0.031 A 
ATOM      4  C4  IND d   1       4.471   1.607  -1.884  0.00  0.00     0.051 A 
ATOM      5  C5  IND d   1       5.564   2.406  -1.693  0.00  0.00    -0.031 A 
ATOM      6  C6  IND d   1       6.000   2.756  -0.431  0.00  0.00     0.015 A 
ATOM      7  C7  IND d   1       5.363   2.308   0.692  0.00  0.00    -0.016 A 
ATOM      8  C8  IND d   1       4.250   1.502   0.501  0.00  0.00    -0.047 A 
ATOM      9  C9  IND d   1       3.777   1.179  -0.777  0.00  0.00    -0.096 A 
ATOM     10  HN1 IND d   1       3.462   0.975   2.268  0.00  0.00     0.298 HD
ENDROOT
TORSDOF 0
ENDMDL
