MODEL 1
REMARK minimizedAffinity 9.94650078
REMARK minimizedRMSD -1
REMARK  0 active torsions:
REMARK  status: ('A' for Active; 'I' for Inactive)
ROOT
ATOM      1  N1  IND d   1       0.694   3.316   4.700  0.00  0.00    -0.196 N 
ATOM      2  C2  IND d   1       1.547   2.430   5.297  0.00  0.00     0.054 A 
ATOM      3  C3  IND d   1       2.368   1.875   4.378  0.00  0.00    -0.031 A 
ATOM      4  C4  IND d   1       2.557   2.350   1.855  0.00  0.00     0.051 A 
ATOM      5  C5  IND d   1       1.966   3.054   0.844  0.00  0.00    -0.031 A 
ATOM      6  C6  IND d   1       0.900   3.901   1.072  0.00  0.00     0.015 A 
ATOM      7  C7  IND d   1       0.392   4.085   2.327  0.00  0.00    -0.016 A 
ATOM      8  C8  IND d   1       0.985   3.365   3.355  0.00  0.00    -0.047 A 
ATOM      9  C9  IND d   1       2.039   2.472   3.123  0.00  0.00    -0.096 A 
ATOM     10  HN1 IND d   1       0.080   3.767   5.098  0.00  0.00     0.298 HD
ENDROOT
TORSDOF 0
ENDMDL
