MODEL 1
REMARK minimizedAffinity -5.1248312
REMARK minimizedRMSD -1
REMARK  3 active torsions:
REMARK  status: ('A' for Active; 'I' for Inactive)
REMARK    1  A    between atoms: C3'_2  and  C2'_3 
REMARK    2  A    between atoms: C2'_3  and  C1'_4 
REMARK    3  A    between atoms: C1'_4  and  C1_5 
ROOT
ATOM      1  C1  N4B d   1       0.226  -0.274   0.093  0.00  0.00    -0.075 A 
ATOM      2  C2  N4B d   1      -0.371  -0.078   1.358  0.00  0.00     0.002 A 
ATOM      3  C3  N4B d   1       0.115  -0.744   2.457  0.00  0.00     0.002 A 
ATOM      4  C4  N4B d   1       1.179  -1.621   2.312  0.00  0.00    -0.004 A 
ATOM      5  C5  N4B d   1       1.766  -1.785   1.092  0.00  0.00     0.002 A 
ATOM      6  C6  N4B d   1       1.291  -1.120  -0.020  0.00  0.00     0.002 A 
ENDROOT
BRANCH   1   7
ATOM      7  C1' N4B d   1      -0.324   0.365  -1.152  0.00  0.00     0.057 C 
BRANCH   7   8
ATOM      8  C2' N4B d   1      -0.616   1.837  -0.873  0.00  0.00     0.009 C 
BRANCH   8   9
ATOM      9  C3' N4B d   1      -0.698   2.653  -2.151  0.00  0.00     0.004 C 
ATOM     10  C4' N4B d   1      -0.747   1.799  -3.383  0.00  0.00     0.003 C 
ENDBRANCH   8   9
ENDBRANCH   7   8
ENDBRANCH   1   7
TORSDOF 3
ENDMDL
