MODEL 1
REMARK minimizedAffinity -2.85341549
REMARK minimizedRMSD -1
REMARK  3 active torsions:
REMARK  status: ('A' for Active; 'I' for Inactive)
REMARK    1  A    between atoms: C3'_2  and  C2'_3 
REMARK    2  A    between atoms: C2'_3  and  C1'_4 
REMARK    3  A    between atoms: C1'_4  and  C1_5 
ROOT
ATOM      1  C1  N4B d   1      -0.063   0.083   0.548  0.00  0.00    -0.075 A 
ATOM      2  C2  N4B d   1      -0.369  -0.846   1.567  0.00  0.00     0.002 A 
ATOM      3  C3  N4B d   1       0.578  -1.169   2.508  0.00  0.00     0.002 A 
ATOM      4  C4  N4B d   1       1.837  -0.593   2.440  0.00  0.00    -0.004 A 
ATOM      5  C5  N4B d   1       2.116   0.323   1.468  0.00  0.00     0.002 A 
ATOM      6  C6  N4B d   1       1.173   0.660   0.518  0.00  0.00     0.002 A 
ENDROOT
BRANCH   1   7
ATOM      7  C1' N4B d   1      -1.037   0.403  -0.553  0.00  0.00     0.057 C 
BRANCH   7   8
ATOM      8  C2' N4B d   1      -0.490   1.560  -1.384  0.00  0.00     0.009 C 
BRANCH   8   9
ATOM      9  C3' N4B d   1      -1.549   2.155  -2.296  0.00  0.00     0.004 C 
ATOM     10  C4' N4B d   1      -1.306   3.603  -2.600  0.00  0.00     0.003 C 
ENDBRANCH   8   9
ENDBRANCH   7   8
ENDBRANCH   1   7
TORSDOF 3
ENDMDL
