MODEL 1
REMARK minimizedAffinity -6.89867592
REMARK minimizedRMSD -1
REMARK  3 active torsions:
REMARK  status: ('A' for Active; 'I' for Inactive)
REMARK    1  A    between atoms: C3'_2  and  C2'_3 
REMARK    2  A    between atoms: C2'_3  and  C1'_4 
REMARK    3  A    between atoms: C1'_4  and  C1_5 
ROOT
ATOM      1  C1  N4B d   1       0.273  -0.558   0.635  0.00  0.00    -0.075 A 
ATOM      2  C2  N4B d   1      -0.063  -0.498   2.005  0.00  0.00     0.002 A 
ATOM      3  C3  N4B d   1       0.801  -1.000   2.947  0.00  0.00     0.002 A 
ATOM      4  C4  N4B d   1       1.994  -1.581   2.542  0.00  0.00    -0.004 A 
ATOM      5  C5  N4B d   1       2.323  -1.611   1.219  0.00  0.00     0.002 A 
ATOM      6  C6  N4B d   1       1.466  -1.107   0.262  0.00  0.00     0.002 A 
ENDROOT
BRANCH   1   7
ATOM      7  C1' N4B d   1      -0.678  -0.100  -0.437  0.00  0.00     0.057 C 
BRANCH   7   8
ATOM      8  C2' N4B d   1       0.107   0.624  -1.527  0.00  0.00     0.009 C 
BRANCH   8   9
ATOM      9  C3' N4B d   1      -0.694   1.756  -2.147  0.00  0.00     0.004 C 
ATOM     10  C4' N4B d   1       0.163   2.915  -2.561  0.00  0.00     0.003 C 
ENDBRANCH   8   9
ENDBRANCH   7   8
ENDBRANCH   1   7
TORSDOF 3
ENDMDL
