MODEL 1
REMARK minimizedAffinity -3.46127653
REMARK minimizedRMSD -1
REMARK  3 active torsions:
REMARK  status: ('A' for Active; 'I' for Inactive)
REMARK    1  A    between atoms: C3'_2  and  C2'_3 
REMARK    2  A    between atoms: C2'_3  and  C1'_4 
REMARK    3  A    between atoms: C1'_4  and  C1_5 
ROOT
ATOM      1  C1  N4B d   1      -0.007  -0.339  -0.095  0.00  0.00    -0.075 A 
ATOM      2  C2  N4B d   1       1.018  -1.115   0.491  0.00  0.00     0.002 A 
ATOM      3  C3  N4B d   1       0.923  -1.494   1.808  0.00  0.00     0.002 A 
ATOM      4  C4  N4B d   1      -0.173  -1.096   2.559  0.00  0.00    -0.004 A 
ATOM      5  C5  N4B d   1      -1.170  -0.369   1.978  0.00  0.00     0.002 A 
ATOM      6  C6  N4B d   1      -1.090   0.016   0.655  0.00  0.00     0.002 A 
ENDROOT
BRANCH   1   7
ATOM      7  C1' N4B d   1       0.094   0.172  -1.507  0.00  0.00     0.057 C 
BRANCH   7   8
ATOM      8  C2' N4B d   1      -0.964   1.249  -1.725  0.00  0.00     0.009 C 
BRANCH   8   9
ATOM      9  C3' N4B d   1      -0.375   2.509  -2.336  0.00  0.00     0.004 C 
ATOM     10  C4' N4B d   1      -1.175   3.737  -2.020  0.00  0.00     0.003 C 
ENDBRANCH   8   9
ENDBRANCH   7   8
ENDBRANCH   1   7
TORSDOF 3
ENDMDL
