MODEL 1
REMARK minimizedAffinity -4.95569086
REMARK minimizedRMSD -1
REMARK  3 active torsions:
REMARK  status: ('A' for Active; 'I' for Inactive)
REMARK    1  A    between atoms: C3'_2  and  C2'_3 
REMARK    2  A    between atoms: C2'_3  and  C1'_4 
REMARK    3  A    between atoms: C1'_4  and  C1_5 
ROOT
ATOM      1  C1  N4B d   1      -0.849   1.276  -1.019  0.00  0.00    -0.075 A 
ATOM      2  C2  N4B d   1      -2.071   1.853  -0.608  0.00  0.00     0.002 A 
ATOM      3  C3  N4B d   1      -2.543   2.980  -1.235  0.00  0.00     0.002 A 
ATOM      4  C4  N4B d   1      -1.805   3.555  -2.258  0.00  0.00    -0.004 A 
ATOM      5  C5  N4B d   1      -0.639   2.977  -2.667  0.00  0.00     0.002 A 
ATOM      6  C6  N4B d   1      -0.154   1.842  -2.048  0.00  0.00     0.002 A 
ENDROOT
BRANCH   1   7
ATOM      7  C1' N4B d   1      -0.250   0.094  -0.307  0.00  0.00     0.057 C 
BRANCH   7   8
ATOM      8  C2' N4B d   1      -1.246  -0.427   0.724  0.00  0.00     0.009 C 
BRANCH   8   9
ATOM      9  C3' N4B d   1      -0.688  -0.364   2.136  0.00  0.00     0.004 C 
ATOM     10  C4' N4B d   1      -0.033  -1.645   2.560  0.00  0.00     0.003 C 
ENDBRANCH   8   9
ENDBRANCH   7   8
ENDBRANCH   1   7
TORSDOF 3
ENDMDL
