MODEL 1
REMARK minimizedAffinity -1.63765204
REMARK minimizedRMSD -1
REMARK  3 active torsions:
REMARK  status: ('A' for Active; 'I' for Inactive)
REMARK    1  A    between atoms: C3'_2  and  C2'_3 
REMARK    2  A    between atoms: C2'_3  and  C1'_4 
REMARK    3  A    between atoms: C1'_4  and  C1_5 
ROOT
ATOM      1  C1  N4B d   1      -0.775  -0.019   0.337  0.00  0.00    -0.075 A 
ATOM      2  C2  N4B d   1      -1.039   0.596   1.581  0.00  0.00     0.002 A 
ATOM      3  C3  N4B d   1      -0.768  -0.073   2.749  0.00  0.00     0.002 A 
ATOM      4  C4  N4B d   1      -0.251  -1.359   2.699  0.00  0.00    -0.004 A 
ATOM      5  C5  N4B d   1       0.026  -1.936   1.494  0.00  0.00     0.002 A 
ATOM      6  C6  N4B d   1      -0.239  -1.274   0.312  0.00  0.00     0.002 A 
ENDROOT
BRANCH   1   7
ATOM      7  C1' N4B d   1      -1.135   0.639  -0.967  0.00  0.00     0.057 C 
BRANCH   7   8
ATOM      8  C2' N4B d   1      -1.005   2.152  -0.817  0.00  0.00     0.009 C 
BRANCH   8   9
ATOM      9  C3' N4B d   1      -0.667   2.826  -2.136  0.00  0.00     0.004 C 
ATOM     10  C4' N4B d   1       0.810   2.930  -2.373  0.00  0.00     0.003 C 
ENDBRANCH   8   9
ENDBRANCH   7   8
ENDBRANCH   1   7
TORSDOF 3
ENDMDL
