MODEL 1
REMARK minimizedAffinity 17.2236366
REMARK minimizedRMSD -1
REMARK  0 active torsions:
REMARK  status: ('A' for Active; 'I' for Inactive)
ROOT
ATOM      1  O1  BZF d   1       1.022   1.553  -3.320  0.00  0.00    -0.204 OA
ATOM      2  C2  BZF d   1       1.192   2.859  -2.903  0.00  0.00     0.174 A 
ATOM      3  C3  BZF d   1       1.684   2.900  -1.648  0.00  0.00    -0.012 A 
ATOM      4  C3A BZF d   1       1.918   1.534  -1.291  0.00  0.00    -0.107 A 
ATOM      5  C4  BZF d   1       2.417   0.928  -0.173  0.00  0.00     0.055 A 
ATOM      6  C5  BZF d   1       2.446  -0.429  -0.115  0.00  0.00    -0.016 A 
ATOM      7  C6  BZF d   1       1.982  -1.210  -1.153  0.00  0.00     0.022 A 
ATOM      8  C7  BZF d   1       1.483  -0.655  -2.284  0.00  0.00     0.029 A 
ATOM      9  C7A BZF d   1       1.482   0.717  -2.359  0.00  0.00     0.058 A 
ENDROOT
TORSDOF 0
ENDMDL
