MODEL 1
REMARK minimizedAffinity 7.38301516
REMARK minimizedRMSD -1
REMARK  0 active torsions:
REMARK  status: ('A' for Active; 'I' for Inactive)
ROOT
ATOM      1  O1  BZF d   1       2.070  -2.835  -2.452  0.00  0.00    -0.204 OA
ATOM      2  C2  BZF d   1       2.135  -3.361  -3.727  0.00  0.00     0.174 A 
ATOM      3  C3  BZF d   1       3.059  -4.342  -3.794  0.00  0.00    -0.012 A 
ATOM      4  C3A BZF d   1       3.540  -4.496  -2.455  0.00  0.00    -0.107 A 
ATOM      5  C4  BZF d   1       4.458  -5.326  -1.877  0.00  0.00     0.055 A 
ATOM      6  C5  BZF d   1       4.750  -5.172  -0.559  0.00  0.00    -0.016 A 
ATOM      7  C6  BZF d   1       4.148  -4.197   0.209  0.00  0.00     0.022 A 
ATOM      8  C7  BZF d   1       3.227  -3.354  -0.318  0.00  0.00     0.029 A 
ATOM      9  C7A BZF d   1       2.905  -3.529  -1.642  0.00  0.00     0.058 A 
ENDROOT
TORSDOF 0
ENDMDL
