MODEL 1
REMARK minimizedAffinity 11.4646425
REMARK minimizedRMSD -1
REMARK  0 active torsions:
REMARK  status: ('A' for Active; 'I' for Inactive)
ROOT
ATOM      1  O1  BZF d   1       5.262   3.466   1.169  0.00  0.00    -0.204 OA
ATOM      2  C2  BZF d   1       5.016   4.638   1.858  0.00  0.00     0.174 A 
ATOM      3  C3  BZF d   1       3.765   4.642   2.363  0.00  0.00    -0.012 A 
ATOM      4  C3A BZF d   1       3.225   3.357   2.042  0.00  0.00    -0.107 A 
ATOM      5  C4  BZF d   1       2.025   2.754   2.290  0.00  0.00     0.055 A 
ATOM      6  C5  BZF d   1       1.788   1.518   1.777  0.00  0.00    -0.016 A 
ATOM      7  C6  BZF d   1       2.725   0.859   1.008  0.00  0.00     0.022 A 
ATOM      8  C7  BZF d   1       3.932   1.415   0.740  0.00  0.00     0.029 A 
ATOM      9  C7A BZF d   1       4.187   2.649   1.285  0.00  0.00     0.058 A 
ENDROOT
TORSDOF 0
ENDMDL
