MODEL 1
REMARK minimizedAffinity 13.312295
REMARK minimizedRMSD -1
REMARK  0 active torsions:
REMARK  status: ('A' for Active; 'I' for Inactive)
ROOT
ATOM      1  O1  BZF d   1      -5.958  -4.566   1.804  0.00  0.00    -0.204 OA
ATOM      2  C2  BZF d   1      -5.955  -5.770   2.482  0.00  0.00     0.174 A 
ATOM      3  C3  BZF d   1      -5.914  -5.568   3.815  0.00  0.00    -0.012 A 
ATOM      4  C3A BZF d   1      -5.983  -4.149   3.983  0.00  0.00    -0.107 A 
ATOM      5  C4  BZF d   1      -5.999  -3.332   5.077  0.00  0.00     0.055 A 
ATOM      6  C5  BZF d   1      -5.997  -1.985   4.897  0.00  0.00    -0.016 A 
ATOM      7  C6  BZF d   1      -5.976  -1.421   3.638  0.00  0.00     0.022 A 
ATOM      8  C7  BZF d   1      -5.965  -2.190   2.522  0.00  0.00     0.029 A 
ATOM      9  C7A BZF d   1      -5.999  -3.552   2.701  0.00  0.00     0.058 A 
ENDROOT
TORSDOF 0
ENDMDL
