MODEL 1
REMARK minimizedAffinity 3.8122561
REMARK minimizedRMSD -1
REMARK  0 active torsions:
REMARK  status: ('A' for Active; 'I' for Inactive)
ROOT
ATOM      1  O1  BZF d   1       2.328  -3.585  -2.958  0.00  0.00    -0.204 OA
ATOM      2  C2  BZF d   1       2.736  -4.455  -3.951  0.00  0.00     0.174 A 
ATOM      3  C3  BZF d   1       3.772  -5.210  -3.531  0.00  0.00    -0.012 A 
ATOM      4  C3A BZF d   1       3.967  -4.850  -2.160  0.00  0.00    -0.107 A 
ATOM      5  C4  BZF d   1       4.838  -5.267  -1.194  0.00  0.00     0.055 A 
ATOM      6  C5  BZF d   1       4.815  -4.663   0.022  0.00  0.00    -0.016 A 
ATOM      7  C6  BZF d   1       3.939  -3.635   0.306  0.00  0.00     0.022 A 
ATOM      8  C7  BZF d   1       3.053  -3.190  -0.618  0.00  0.00     0.029 A 
ATOM      9  C7A BZF d   1       3.052  -3.821  -1.838  0.00  0.00     0.058 A 
ENDROOT
TORSDOF 0
ENDMDL
