MODEL 1
REMARK minimizedAffinity 2.79400802
REMARK minimizedRMSD -1
REMARK  0 active torsions:
REMARK  status: ('A' for Active; 'I' for Inactive)
ROOT
ATOM      1  O1  BZF d   1       2.330   1.199  -2.495  0.00  0.00    -0.204 OA
ATOM      2  C2  BZF d   1       1.826   0.504  -3.577  0.00  0.00     0.174 A 
ATOM      3  C3  BZF d   1       1.972  -0.825  -3.402  0.00  0.00    -0.012 A 
ATOM      4  C3A BZF d   1       2.523  -0.974  -2.090  0.00  0.00    -0.107 A 
ATOM      5  C4  BZF d   1       2.878  -2.057  -1.338  0.00  0.00     0.055 A 
ATOM      6  C5  BZF d   1       3.456  -1.857  -0.124  0.00  0.00    -0.016 A 
ATOM      7  C6  BZF d   1       3.697  -0.591   0.366  0.00  0.00     0.022 A 
ATOM      8  C7  BZF d   1       3.358   0.514  -0.342  0.00  0.00     0.029 A 
ATOM      9  C7A BZF d   1       2.744   0.316  -1.554  0.00  0.00     0.058 A 
ENDROOT
TORSDOF 0
ENDMDL
