MODEL 1
REMARK minimizedAffinity 20.7143078
REMARK minimizedRMSD -1
REMARK  0 active torsions:
REMARK  status: ('A' for Active; 'I' for Inactive)
ROOT
ATOM      1  O1  BZF d   1       3.555   0.352   0.303  0.00  0.00    -0.204 OA
ATOM      2  C2  BZF d   1       4.244   1.104  -0.628  0.00  0.00     0.174 A 
ATOM      3  C3  BZF d   1       4.244   2.408  -0.285  0.00  0.00    -0.012 A 
ATOM      4  C3A BZF d   1       3.588   2.463   0.986  0.00  0.00    -0.107 A 
ATOM      5  C4  BZF d   1       3.295   3.480   1.849  0.00  0.00     0.055 A 
ATOM      6  C5  BZF d   1       2.581   3.208   2.972  0.00  0.00    -0.016 A 
ATOM      7  C6  BZF d   1       2.140   1.933   3.262  0.00  0.00     0.022 A 
ATOM      8  C7  BZF d   1       2.410   0.891   2.439  0.00  0.00     0.029 A 
ATOM      9  C7A BZF d   1       3.160   1.157   1.319  0.00  0.00     0.058 A 
ENDROOT
TORSDOF 0
ENDMDL
