MODEL 1
REMARK minimizedAffinity 13.0394535
REMARK minimizedRMSD -1
REMARK  0 active torsions:
REMARK  status: ('A' for Active; 'I' for Inactive)
ROOT
ATOM      1  O1  BZF d   1       1.350  -0.187   5.582  0.00  0.00    -0.204 OA
ATOM      2  C2  BZF d   1       0.847  -0.808   4.456  0.00  0.00     0.174 A 
ATOM      3  C3  BZF d   1       0.983  -0.017   3.372  0.00  0.00    -0.012 A 
ATOM      4  C3A BZF d   1       1.693   1.136   3.834  0.00  0.00    -0.107 A 
ATOM      5  C4  BZF d   1       2.141   2.270   3.221  0.00  0.00     0.055 A 
ATOM      6  C5  BZF d   1       2.735   3.236   3.970  0.00  0.00    -0.016 A 
ATOM      7  C6  BZF d   1       2.893   3.102   5.334  0.00  0.00     0.022 A 
ATOM      8  C7  BZF d   1       2.469   1.992   5.986  0.00  0.00     0.029 A 
ATOM      9  C7A BZF d   1       1.898   1.000   5.227  0.00  0.00     0.058 A 
ENDROOT
TORSDOF 0
ENDMDL
