MODEL 1
REMARK minimizedAffinity 14.5702944
REMARK minimizedRMSD -1
REMARK  0 active torsions:
REMARK  status: ('A' for Active; 'I' for Inactive)
ROOT
ATOM      1  O1  BZF d   1      -2.561  -3.139  -2.656  0.00  0.00    -0.204 OA
ATOM      2  C2  BZF d   1      -3.061  -1.869  -2.868  0.00  0.00     0.174 A 
ATOM      3  C3  BZF d   1      -2.159  -0.933  -2.509  0.00  0.00    -0.012 A 
ATOM      4  C3A BZF d   1      -0.989  -1.664  -2.129  0.00  0.00    -0.107 A 
ATOM      5  C4  BZF d   1       0.250  -1.291  -1.692  0.00  0.00     0.055 A 
ATOM      6  C5  BZF d   1       1.141  -2.253  -1.336  0.00  0.00    -0.016 A 
ATOM      7  C6  BZF d   1       0.826  -3.594  -1.400  0.00  0.00     0.022 A 
ATOM      8  C7  BZF d   1      -0.388  -4.013  -1.832  0.00  0.00     0.029 A 
ATOM      9  C7A BZF d   1      -1.280  -3.044  -2.224  0.00  0.00     0.058 A 
ENDROOT
TORSDOF 0
ENDMDL
