MODEL 1
REMARK minimizedAffinity 7.58734941
REMARK minimizedRMSD -1
REMARK  0 active torsions:
REMARK  status: ('A' for Active; 'I' for Inactive)
ROOT
ATOM      1  O1  BZF d   1       1.430  -1.606  -0.638  0.00  0.00    -0.204 OA
ATOM      2  C2  BZF d   1       2.458  -2.422  -0.209  0.00  0.00     0.174 A 
ATOM      3  C3  BZF d   1       2.187  -3.715  -0.479  0.00  0.00    -0.012 A 
ATOM      4  C3A BZF d   1       0.951  -3.698  -1.200  0.00  0.00    -0.107 A 
ATOM      5  C4  BZF d   1       0.174  -4.674  -1.756  0.00  0.00     0.055 A 
ATOM      6  C5  BZF d   1      -1.010  -4.330  -2.327  0.00  0.00    -0.016 A 
ATOM      7  C6  BZF d   1      -1.451  -3.023  -2.354  0.00  0.00     0.022 A 
ATOM      8  C7  BZF d   1      -0.713  -2.020  -1.820  0.00  0.00     0.029 A 
ATOM      9  C7A BZF d   1       0.500  -2.359  -1.272  0.00  0.00     0.058 A 
ENDROOT
TORSDOF 0
ENDMDL
