MODEL 1
REMARK minimizedAffinity 19.7384453
REMARK minimizedRMSD -1
REMARK  0 active torsions:
REMARK  status: ('A' for Active; 'I' for Inactive)
ROOT
ATOM      1  O1  BZF d   1      -1.305  -2.619  -3.025  0.00  0.00    -0.204 OA
ATOM      2  C2  BZF d   1      -1.757  -3.895  -2.751  0.00  0.00     0.174 A 
ATOM      3  C3  BZF d   1      -1.004  -4.475  -1.795  0.00  0.00    -0.012 A 
ATOM      4  C3A BZF d   1      -0.076  -3.466  -1.384  0.00  0.00    -0.107 A 
ATOM      5  C4  BZF d   1       0.922  -3.432  -0.453  0.00  0.00     0.055 A 
ATOM      6  C5  BZF d   1       1.692  -2.317  -0.350  0.00  0.00    -0.016 A 
ATOM      7  C6  BZF d   1       1.495  -1.221  -1.165  0.00  0.00     0.022 A 
ATOM      8  C7  BZF d   1       0.514  -1.206  -2.100  0.00  0.00     0.029 A 
ATOM      9  C7A BZF d   1      -0.287  -2.319  -2.183  0.00  0.00     0.058 A 
ENDROOT
TORSDOF 0
ENDMDL
