MODEL 1
REMARK minimizedAffinity 12.5410767
REMARK minimizedRMSD -1
REMARK  0 active torsions:
REMARK  status: ('A' for Active; 'I' for Inactive)
ROOT
ATOM      1  O1  BZF d   1      -5.961  -0.106   3.477  0.00  0.00    -0.204 OA
ATOM      2  C2  BZF d   1      -5.998   0.358   2.176  0.00  0.00     0.174 A 
ATOM      3  C3  BZF d   1      -5.962  -0.668   1.301  0.00  0.00    -0.012 A 
ATOM      4  C3A BZF d   1      -5.994  -1.851   2.107  0.00  0.00    -0.107 A 
ATOM      5  C4  BZF d   1      -5.996  -3.185   1.816  0.00  0.00     0.055 A 
ATOM      6  C5  BZF d   1      -5.956  -4.083   2.835  0.00  0.00    -0.016 A 
ATOM      7  C6  BZF d   1      -5.908  -3.683   4.154  0.00  0.00     0.022 A 
ATOM      8  C7  BZF d   1      -5.909  -2.370   4.492  0.00  0.00     0.029 A 
ATOM      9  C7A BZF d   1      -5.982  -1.461   3.466  0.00  0.00     0.058 A 
ENDROOT
TORSDOF 0
ENDMDL
