MODEL 1
REMARK minimizedAffinity 11.0726643
REMARK minimizedRMSD -1
REMARK  0 active torsions:
REMARK  status: ('A' for Active; 'I' for Inactive)
ROOT
ATOM      1  O1  BZF d   1       2.027   2.720  -3.217  0.00  0.00    -0.204 OA
ATOM      2  C2  BZF d   1       1.857   1.574  -2.463  0.00  0.00     0.174 A 
ATOM      3  C3  BZF d   1       1.694   1.880  -1.160  0.00  0.00    -0.012 A 
ATOM      4  C3A BZF d   1       1.674   3.309  -1.108  0.00  0.00    -0.107 A 
ATOM      5  C4  BZF d   1       1.526   4.210  -0.092  0.00  0.00     0.055 A 
ATOM      6  C5  BZF d   1       1.627   5.537  -0.365  0.00  0.00    -0.016 A 
ATOM      7  C6  BZF d   1       1.881   5.998  -1.640  0.00  0.00     0.022 A 
ATOM      8  C7  BZF d   1       2.030   5.143  -2.681  0.00  0.00     0.029 A 
ATOM      9  C7A BZF d   1       1.896   3.803  -2.414  0.00  0.00     0.058 A 
ENDROOT
TORSDOF 0
ENDMDL
