MODEL 1
REMARK minimizedAffinity 9.4442997
REMARK minimizedRMSD -1
REMARK  0 active torsions:
REMARK  status: ('A' for Active; 'I' for Inactive)
ROOT
ATOM      1  O1  BZF d   1       1.225  -3.637  -0.175  0.00  0.00    -0.204 OA
ATOM      2  C2  BZF d   1       2.094  -2.565  -0.230  0.00  0.00     0.174 A 
ATOM      3  C3  BZF d   1       1.820  -1.782  -1.293  0.00  0.00    -0.012 A 
ATOM      4  C3A BZF d   1       0.652  -2.353  -1.890  0.00  0.00    -0.107 A 
ATOM      5  C4  BZF d   1      -0.111  -2.014  -2.971  0.00  0.00     0.055 A 
ATOM      6  C5  BZF d   1      -1.143  -2.823  -3.330  0.00  0.00    -0.016 A 
ATOM      7  C6  BZF d   1      -1.435  -3.978  -2.636  0.00  0.00     0.022 A 
ATOM      8  C7  BZF d   1      -0.710  -4.353  -1.554  0.00  0.00     0.029 A 
ATOM      9  C7A BZF d   1       0.313  -3.521  -1.169  0.00  0.00     0.058 A 
ENDROOT
TORSDOF 0
ENDMDL
