MODEL 1
REMARK minimizedAffinity 14.4157267
REMARK minimizedRMSD -1
REMARK  0 active torsions:
REMARK  status: ('A' for Active; 'I' for Inactive)
ROOT
ATOM      1  O1  BZF d   1       0.635  -3.436  -1.152  0.00  0.00    -0.204 OA
ATOM      2  C2  BZF d   1       1.355  -2.259  -1.077  0.00  0.00     0.174 A 
ATOM      3  C3  BZF d   1       0.697  -1.256  -1.694  0.00  0.00    -0.012 A 
ATOM      4  C3A BZF d   1      -0.552  -1.821  -2.103  0.00  0.00    -0.107 A 
ATOM      5  C4  BZF d   1      -1.643  -1.317  -2.751  0.00  0.00     0.055 A 
ATOM      6  C5  BZF d   1      -2.669  -2.151  -3.065  0.00  0.00    -0.016 A 
ATOM      7  C6  BZF d   1      -2.635  -3.494  -2.751  0.00  0.00     0.022 A 
ATOM      8  C7  BZF d   1      -1.576  -4.039  -2.104  0.00  0.00     0.029 A 
ATOM      9  C7A BZF d   1      -0.552  -3.192  -1.756  0.00  0.00     0.058 A 
ENDROOT
TORSDOF 0
ENDMDL
