MODEL 1
REMARK minimizedAffinity 18.3055325
REMARK minimizedRMSD -1
REMARK  0 active torsions:
REMARK  status: ('A' for Active; 'I' for Inactive)
ROOT
ATOM      1  O1  BZF d   1       2.785  -0.343  -0.962  0.00  0.00    -0.204 OA
ATOM      2  C2  BZF d   1       3.397   0.391   0.036  0.00  0.00     0.174 A 
ATOM      3  C3  BZF d   1       3.214   1.713  -0.162  0.00  0.00    -0.012 A 
ATOM      4  C3A BZF d   1       2.361   1.808  -1.306  0.00  0.00    -0.107 A 
ATOM      5  C4  BZF d   1       1.811   2.859  -1.983  0.00  0.00     0.055 A 
ATOM      6  C5  BZF d   1       1.084   2.615  -3.105  0.00  0.00    -0.016 A 
ATOM      7  C6  BZF d   1       0.891   1.334  -3.580  0.00  0.00     0.022 A 
ATOM      8  C7  BZF d   1       1.412   0.259  -2.940  0.00  0.00     0.029 A 
ATOM      9  C7A BZF d   1       2.120   0.500  -1.788  0.00  0.00     0.058 A 
ENDROOT
TORSDOF 0
ENDMDL
