MODEL 1
REMARK minimizedAffinity 3.21560001
REMARK minimizedRMSD -1
REMARK  0 active torsions:
REMARK  status: ('A' for Active; 'I' for Inactive)
ROOT
ATOM      1  O1  BZF d   1       1.500  -0.374  -2.907  0.00  0.00    -0.204 OA
ATOM      2  C2  BZF d   1       2.368   0.168  -1.978  0.00  0.00     0.174 A 
ATOM      3  C3  BZF d   1       2.438  -0.609  -0.878  0.00  0.00    -0.012 A 
ATOM      4  C3A BZF d   1       1.630  -1.753  -1.174  0.00  0.00    -0.107 A 
ATOM      5  C4  BZF d   1       1.318  -2.887  -0.479  0.00  0.00     0.055 A 
ATOM      6  C5  BZF d   1       0.443  -3.774  -1.022  0.00  0.00    -0.016 A 
ATOM      7  C6  BZF d   1      -0.142  -3.557  -2.252  0.00  0.00     0.022 A 
ATOM      8  C7  BZF d   1       0.141  -2.449  -2.981  0.00  0.00     0.029 A 
ATOM      9  C7A BZF d   1       1.050  -1.567  -2.450  0.00  0.00     0.058 A 
ENDROOT
TORSDOF 0
ENDMDL
