MODEL 1
REMARK minimizedAffinity -5.09003305
REMARK minimizedRMSD -1
REMARK  0 active torsions:
REMARK  status: ('A' for Active; 'I' for Inactive)
ROOT
ATOM      1  O1  BZF d   1      -0.139  -0.143   0.999  0.00  0.00    -0.204 OA
ATOM      2  C2  BZF d   1       0.030   1.228   1.003  0.00  0.00     0.174 A 
ATOM      3  C3  BZF d   1       0.929   1.602   0.069  0.00  0.00    -0.012 A 
ATOM      4  C3A BZF d   1       1.278   0.397  -0.620  0.00  0.00    -0.107 A 
ATOM      5  C4  BZF d   1       2.115   0.122  -1.663  0.00  0.00     0.055 A 
ATOM      6  C5  BZF d   1       2.287  -1.170  -2.048  0.00  0.00    -0.016 A 
ATOM      7  C6  BZF d   1       1.643  -2.210  -1.410  0.00  0.00     0.022 A 
ATOM      8  C7  BZF d   1       0.799  -1.985  -0.374  0.00  0.00     0.029 A 
ATOM      9  C7A BZF d   1       0.598  -0.678  -0.003  0.00  0.00     0.058 A 
ENDROOT
TORSDOF 0
ENDMDL
