MODEL 1
REMARK minimizedAffinity 3.59280634
REMARK minimizedRMSD -1
REMARK  0 active torsions:
REMARK  status: ('A' for Active; 'I' for Inactive)
ROOT
ATOM      1  C   UNL d   1       4.595  -1.045  -3.946  0.00  0.00     0.172 C 
ATOM      2  N   UNL d   1       4.404  -0.466  -2.637  0.00  0.00    -0.070 N 
ATOM      3  C1  UNL d   1       5.246   0.425  -2.027  0.00  0.00    -0.004 A 
ATOM      4  C2  UNL d   1       4.712   0.734  -0.794  0.00  0.00    -0.047 A 
ATOM      5  C3  UNL d   1       3.509   0.003  -0.658  0.00  0.00    -0.047 A 
ATOM      6  C4  UNL d   1       3.342  -0.732  -1.813  0.00  0.00    -0.004 A 
ENDROOT
TORSDOF 0
ENDMDL
