MODEL 1
REMARK minimizedAffinity 2.48626804
REMARK minimizedRMSD -1
REMARK  0 active torsions:
REMARK  status: ('A' for Active; 'I' for Inactive)
ROOT
ATOM      1  C   UNL d   1      -2.709   0.878  -5.783  0.00  0.00     0.172 C 
ATOM      2  N   UNL d   1      -3.948   1.237  -5.135  0.00  0.00    -0.070 N 
ATOM      3  C1  UNL d   1      -4.982   0.382  -4.862  0.00  0.00    -0.004 A 
ATOM      4  C2  UNL d   1      -5.976   1.106  -4.240  0.00  0.00    -0.047 A 
ATOM      5  C3  UNL d   1      -5.524   2.443  -4.136  0.00  0.00    -0.047 A 
ATOM      6  C4  UNL d   1      -4.265   2.496  -4.698  0.00  0.00    -0.004 A 
ENDROOT
TORSDOF 0
ENDMDL
