MODEL 1
REMARK minimizedAffinity 4.37018919
REMARK minimizedRMSD -1
REMARK  0 active torsions:
REMARK  status: ('A' for Active; 'I' for Inactive)
ROOT
ATOM      1  C   UNL d   1      -5.975   1.984   5.509  0.00  0.00     0.172 C 
ATOM      2  N   UNL d   1      -5.984   3.375   5.123  0.00  0.00    -0.070 N 
ATOM      3  C1  UNL d   1      -5.991   3.847   3.838  0.00  0.00    -0.004 A 
ATOM      4  C2  UNL d   1      -6.000   5.224   3.893  0.00  0.00    -0.047 A 
ATOM      5  C3  UNL d   1      -5.997   5.592   5.260  0.00  0.00    -0.047 A 
ATOM      6  C4  UNL d   1      -5.987   4.429   5.999  0.00  0.00    -0.004 A 
ENDROOT
TORSDOF 0
ENDMDL
