MODEL 1
REMARK minimizedAffinity 1.31126785
REMARK minimizedRMSD -1
REMARK  0 active torsions:
REMARK  status: ('A' for Active; 'I' for Inactive)
ROOT
ATOM      1  C   UNL d   1      -1.462   1.853   0.237  0.00  0.00     0.172 C 
ATOM      2  N   UNL d   1      -2.859   1.841  -0.127  0.00  0.00    -0.070 N 
ATOM      3  C1  UNL d   1      -3.648   0.726  -0.226  0.00  0.00    -0.004 A 
ATOM      4  C2  UNL d   1      -4.911   1.134  -0.594  0.00  0.00    -0.047 A 
ATOM      5  C3  UNL d   1      -4.881   2.543  -0.722  0.00  0.00    -0.047 A 
ATOM      6  C4  UNL d   1      -3.598   2.954  -0.427  0.00  0.00    -0.004 A 
ENDROOT
TORSDOF 0
ENDMDL
