MODEL 1
REMARK minimizedAffinity 8.51351833
REMARK minimizedRMSD -1
REMARK  0 active torsions:
REMARK  status: ('A' for Active; 'I' for Inactive)
ROOT
ATOM      1  C   UNL d   1       0.040   1.590  -0.344  0.00  0.00     0.172 C 
ATOM      2  N   UNL d   1       0.165   0.920   0.928  0.00  0.00    -0.070 N 
ATOM      3  C1  UNL d   1      -0.874   0.511   1.721  0.00  0.00    -0.004 A 
ATOM      4  C2  UNL d   1      -0.339  -0.084   2.843  0.00  0.00    -0.047 A 
ATOM      5  C3  UNL d   1       1.069  -0.032   2.721  0.00  0.00    -0.047 A 
ATOM      6  C4  UNL d   1       1.355   0.595   1.526  0.00  0.00    -0.004 A 
ENDROOT
TORSDOF 0
ENDMDL
