MODEL 1
REMARK minimizedAffinity 8.86912346
REMARK minimizedRMSD -1
REMARK  0 active torsions:
REMARK  status: ('A' for Active; 'I' for Inactive)
ROOT
ATOM      1  C   UNL d   1       1.172  -2.250  -2.166  0.00  0.00     0.172 C 
ATOM      2  N   UNL d   1       0.252  -3.356  -2.297  0.00  0.00    -0.070 N 
ATOM      3  C1  UNL d   1       0.539  -4.668  -2.033  0.00  0.00    -0.004 A 
ATOM      4  C2  UNL d   1      -0.599  -5.407  -2.279  0.00  0.00    -0.047 A 
ATOM      5  C3  UNL d   1      -1.604  -4.506  -2.705  0.00  0.00    -0.047 A 
ATOM      6  C4  UNL d   1      -1.050  -3.244  -2.707  0.00  0.00    -0.004 A 
ENDROOT
TORSDOF 0
ENDMDL
