MODEL 1
REMARK minimizedAffinity 8.06142044
REMARK minimizedRMSD -1
REMARK  0 active torsions:
REMARK  status: ('A' for Active; 'I' for Inactive)
ROOT
ATOM      1  C   UNL d   1      -5.960   2.324   4.621  0.00  0.00     0.172 C 
ATOM      2  N   UNL d   1      -5.974   3.757   4.798  0.00  0.00    -0.070 N 
ATOM      3  C1  UNL d   1      -5.991   4.413   5.999  0.00  0.00    -0.004 A 
ATOM      4  C2  UNL d   1      -6.000   5.767   5.741  0.00  0.00    -0.047 A 
ATOM      5  C3  UNL d   1      -5.990   5.930   4.336  0.00  0.00    -0.047 A 
ATOM      6  C4  UNL d   1      -5.974   4.670   3.776  0.00  0.00    -0.004 A 
ENDROOT
TORSDOF 0
ENDMDL
