MODEL 1
REMARK minimizedAffinity 1.14196742
REMARK minimizedRMSD -1
REMARK  0 active torsions:
REMARK  status: ('A' for Active; 'I' for Inactive)
ROOT
ATOM      1  C   UNL d   1      -1.332  -5.995  -1.351  0.00  0.00     0.172 C 
ATOM      2  N   UNL d   1      -0.343  -4.945  -1.293  0.00  0.00    -0.070 N 
ATOM      3  C1  UNL d   1       0.033  -4.143  -2.338  0.00  0.00    -0.004 A 
ATOM      4  C2  UNL d   1       0.996  -3.272  -1.876  0.00  0.00    -0.047 A 
ATOM      5  C3  UNL d   1       1.207  -3.561  -0.507  0.00  0.00    -0.047 A 
ATOM      6  C4  UNL d   1       0.365  -4.600  -0.172  0.00  0.00    -0.004 A 
ENDROOT
TORSDOF 0
ENDMDL
