MODEL 1
REMARK minimizedAffinity 7.83282232
REMARK minimizedRMSD -1
REMARK  0 active torsions:
REMARK  status: ('A' for Active; 'I' for Inactive)
ROOT
ATOM      1  C   UNL d   1       2.557  -2.757   0.888  0.00  0.00     0.172 C 
ATOM      2  N   UNL d   1       2.689  -1.418   0.363  0.00  0.00    -0.070 N 
ATOM      3  C1  UNL d   1       1.937  -0.337   0.736  0.00  0.00    -0.004 A 
ATOM      4  C2  UNL d   1       2.369   0.750   0.007  0.00  0.00    -0.047 A 
ATOM      5  C3  UNL d   1       3.417   0.306  -0.834  0.00  0.00    -0.047 A 
ATOM      6  C4  UNL d   1       3.594  -1.040  -0.593  0.00  0.00    -0.004 A 
ENDROOT
TORSDOF 0
ENDMDL
