MODEL 1
REMARK minimizedAffinity -0.0889456049
REMARK minimizedRMSD -1
REMARK  0 active torsions:
REMARK  status: ('A' for Active; 'I' for Inactive)
ROOT
ATOM      1  C   UNL d   1       5.801   3.027   4.221  0.00  0.00     0.172 C 
ATOM      2  N   UNL d   1       5.194   4.236   4.726  0.00  0.00    -0.070 N 
ATOM      3  C1  UNL d   1       5.562   4.899   5.866  0.00  0.00    -0.004 A 
ATOM      4  C2  UNL d   1       4.744   5.999   5.998  0.00  0.00    -0.047 A 
ATOM      5  C3  UNL d   1       3.852   5.998   4.899  0.00  0.00    -0.047 A 
ATOM      6  C4  UNL d   1       4.152   4.895   4.128  0.00  0.00    -0.004 A 
ENDROOT
TORSDOF 0
ENDMDL
