MODEL 1
REMARK minimizedAffinity 2.29443622
REMARK minimizedRMSD -1
REMARK  0 active torsions:
REMARK  status: ('A' for Active; 'I' for Inactive)
ROOT
ATOM      1  C   UNL d   1       6.000   2.429   0.755  0.00  0.00     0.172 C 
ATOM      2  N   UNL d   1       4.904   1.521   0.512  0.00  0.00    -0.070 N 
ATOM      3  C1  UNL d   1       4.115   0.947   1.473  0.00  0.00    -0.004 A 
ATOM      4  C2  UNL d   1       3.188   0.149   0.837  0.00  0.00    -0.047 A 
ATOM      5  C3  UNL d   1       3.430   0.247  -0.554  0.00  0.00    -0.047 A 
ATOM      6  C4  UNL d   1       4.497   1.102  -0.727  0.00  0.00    -0.004 A 
ENDROOT
TORSDOF 0
ENDMDL
