MODEL 1
REMARK minimizedAffinity 7.24890566
REMARK minimizedRMSD -1
REMARK  0 active torsions:
REMARK  status: ('A' for Active; 'I' for Inactive)
ROOT
ATOM      1  C   UNL d   1       2.457  -1.837  -2.652  0.00  0.00     0.172 C 
ATOM      2  N   UNL d   1       3.891  -1.712  -2.768  0.00  0.00    -0.070 N 
ATOM      3  C1  UNL d   1       4.649  -0.698  -2.246  0.00  0.00    -0.004 A 
ATOM      4  C2  UNL d   1       5.965  -0.943  -2.573  0.00  0.00    -0.047 A 
ATOM      5  C3  UNL d   1       6.000  -2.146  -3.317  0.00  0.00    -0.047 A 
ATOM      6  C4  UNL d   1       4.702  -2.601  -3.423  0.00  0.00    -0.004 A 
ENDROOT
TORSDOF 0
ENDMDL
