MODEL 1
REMARK minimizedAffinity -5.43770027
REMARK minimizedRMSD -1
REMARK  3 active torsions:
REMARK  status: ('A' for Active; 'I' for Inactive)
REMARK    1  A    between atoms: C3'_2  and  C2'_3 
REMARK    2  A    between atoms: C2'_3  and  C1'_4 
REMARK    3  A    between atoms: C1'_4  and  C1_5 
ROOT
ATOM      1  C1  N4B d   1      -0.079   0.283   1.280  0.00  0.00    -0.075 A 
ATOM      2  C2  N4B d   1      -0.914   0.847   2.270  0.00  0.00     0.002 A 
ATOM      3  C3  N4B d   1      -0.424   1.080   3.531  0.00  0.00     0.002 A 
ATOM      4  C4  N4B d   1       0.887   0.741   3.831  0.00  0.00    -0.004 A 
ATOM      5  C5  N4B d   1       1.695   0.221   2.862  0.00  0.00     0.002 A 
ATOM      6  C6  N4B d   1       1.217  -0.014   1.589  0.00  0.00     0.002 A 
ENDROOT
BRANCH   1   7
ATOM      7  C1' N4B d   1      -0.594  -0.069  -0.088  0.00  0.00     0.057 C 
BRANCH   7   8
ATOM      8  C2' N4B d   1       0.584  -0.408  -0.995  0.00  0.00     0.009 C 
BRANCH   8   9
ATOM      9  C3' N4B d   1       0.190  -0.411  -2.462  0.00  0.00     0.004 C 
ATOM     10  C4' N4B d   1       1.051   0.490  -3.297  0.00  0.00     0.003 C 
ENDBRANCH   8   9
ENDBRANCH   7   8
ENDBRANCH   1   7
TORSDOF 3
ENDMDL
