MODEL 1
REMARK minimizedAffinity -5.94329166
REMARK minimizedRMSD -1
REMARK  3 active torsions:
REMARK  status: ('A' for Active; 'I' for Inactive)
REMARK    1  A    between atoms: C3'_2  and  C2'_3 
REMARK    2  A    between atoms: C2'_3  and  C1'_4 
REMARK    3  A    between atoms: C1'_4  and  C1_5 
ROOT
ATOM      1  C1  N4B d   1       0.041  -0.083   0.932  0.00  0.00    -0.075 A 
ATOM      2  C2  N4B d   1      -1.140   0.650   1.184  0.00  0.00     0.002 A 
ATOM      3  C3  N4B d   1      -1.361   1.188   2.428  0.00  0.00     0.002 A 
ATOM      4  C4  N4B d   1      -0.429   0.993   3.436  0.00  0.00    -0.004 A 
ATOM      5  C5  N4B d   1       0.721   0.306   3.177  0.00  0.00     0.002 A 
ATOM      6  C6  N4B d   1       0.958  -0.238   1.931  0.00  0.00     0.002 A 
ENDROOT
BRANCH   1   7
ATOM      7  C1' N4B d   1       0.287  -0.763  -0.387  0.00  0.00     0.057 C 
BRANCH   7   8
ATOM      8  C2' N4B d   1       0.712   0.279  -1.417  0.00  0.00     0.009 C 
BRANCH   8   9
ATOM      9  C3' N4B d   1       1.063  -0.352  -2.753  0.00  0.00     0.004 C 
ATOM     10  C4' N4B d   1       1.231   0.659  -3.847  0.00  0.00     0.003 C 
ENDBRANCH   8   9
ENDBRANCH   7   8
ENDBRANCH   1   7
TORSDOF 3
ENDMDL
