MODEL 1
REMARK minimizedAffinity -5.06268215
REMARK minimizedRMSD -1
REMARK  3 active torsions:
REMARK  status: ('A' for Active; 'I' for Inactive)
REMARK    1  A    between atoms: C3'_2  and  C2'_3 
REMARK    2  A    between atoms: C2'_3  and  C1'_4 
REMARK    3  A    between atoms: C1'_4  and  C1_5 
ROOT
ATOM      1  C1  N4B d   1      -0.089  -0.329   0.152  0.00  0.00    -0.075 A 
ATOM      2  C2  N4B d   1       0.848  -0.214   1.203  0.00  0.00     0.002 A 
ATOM      3  C3  N4B d   1       0.474   0.352   2.397  0.00  0.00     0.002 A 
ATOM      4  C4  N4B d   1      -0.820   0.825   2.556  0.00  0.00    -0.004 A 
ATOM      5  C5  N4B d   1      -1.726   0.686   1.545  0.00  0.00     0.002 A 
ATOM      6  C6  N4B d   1      -1.365   0.116   0.341  0.00  0.00     0.002 A 
ENDROOT
BRANCH   1   7
ATOM      7  C1' N4B d   1       0.297  -0.863  -1.200  0.00  0.00     0.057 C 
BRANCH   7   8
ATOM      8  C2' N4B d   1       0.687   0.302  -2.105  0.00  0.00     0.009 C 
BRANCH   8   9
ATOM      9  C3' N4B d   1       0.839  -0.130  -3.554  0.00  0.00     0.004 C 
ATOM     10  C4' N4B d   1       1.422   0.945  -4.422  0.00  0.00     0.003 C 
ENDBRANCH   8   9
ENDBRANCH   7   8
ENDBRANCH   1   7
TORSDOF 3
ENDMDL
