MODEL 1
REMARK minimizedAffinity -5.9331131
REMARK minimizedRMSD -1
REMARK  3 active torsions:
REMARK  status: ('A' for Active; 'I' for Inactive)
REMARK    1  A    between atoms: C3'_2  and  C2'_3 
REMARK    2  A    between atoms: C2'_3  and  C1'_4 
REMARK    3  A    between atoms: C1'_4  and  C1_5 
ROOT
ATOM      1  C1  N4B d   1      -0.313   0.418   0.991  0.00  0.00    -0.075 A 
ATOM      2  C2  N4B d   1      -1.127   1.133   1.897  0.00  0.00     0.002 A 
ATOM      3  C3  N4B d   1      -0.760   1.236   3.216  0.00  0.00     0.002 A 
ATOM      4  C4  N4B d   1       0.402   0.619   3.655  0.00  0.00    -0.004 A 
ATOM      5  C5  N4B d   1       1.196  -0.049   2.769  0.00  0.00     0.002 A 
ATOM      6  C6  N4B d   1       0.841  -0.157   1.439  0.00  0.00     0.002 A 
ENDROOT
BRANCH   1   7
ATOM      7  C1' N4B d   1      -0.716   0.206  -0.442  0.00  0.00     0.057 C 
BRANCH   7   8
ATOM      8  C2' N4B d   1       0.433  -0.461  -1.192  0.00  0.00     0.009 C 
BRANCH   8   9
ATOM      9  C3' N4B d   1       0.423  -0.113  -2.671  0.00  0.00     0.004 C 
ATOM     10  C4' N4B d   1       1.652   0.631  -3.101  0.00  0.00     0.003 C 
ENDBRANCH   8   9
ENDBRANCH   7   8
ENDBRANCH   1   7
TORSDOF 3
ENDMDL
