MODEL 1
REMARK minimizedAffinity -1.63064146
REMARK minimizedRMSD -1
REMARK  0 active torsions:
REMARK  status: ('A' for Active; 'I' for Inactive)
ROOT
ATOM      1  C   UNL d   1      -0.133  -0.682   0.675  0.00  0.00     0.124 A 
ATOM      2  C1  UNL d   1       1.016  -0.314  -0.011  0.00  0.00     0.062 A 
ATOM      3  C2  UNL d   1       1.201   1.006  -0.410  0.00  0.00     0.162 A 
ATOM      4  C3  UNL d   1       0.235   1.970  -0.123  0.00  0.00    -0.034 A 
ATOM      5  C4  UNL d   1      -0.919   1.593   0.567  0.00  0.00     0.162 A 
ATOM      6  C5  UNL d   1      -1.099   0.272   0.963  0.00  0.00     0.062 A 
ATOM      7  F   UNL d   1      -2.211  -0.081   1.626  0.00  0.00    -0.097 F 
ATOM      8  F1  UNL d   1      -1.868   2.495   0.859  0.00  0.00    -0.096 F 
ATOM      9  I   UNL d   1       0.508   3.946  -0.717  0.00  0.00    -0.060 I 
ATOM     10  F2  UNL d   1       2.321   1.333  -1.071  0.00  0.00    -0.096 F 
ATOM     11  F3  UNL d   1       1.950  -1.234  -0.291  0.00  0.00    -0.097 F 
ATOM     12  F4  UNL d   1      -0.310  -1.953   1.057  0.00  0.00    -0.092 F 
ENDROOT
TORSDOF 0
ENDMDL
