MODEL 1
REMARK minimizedAffinity 0.623745322
REMARK minimizedRMSD -1
REMARK  0 active torsions:
REMARK  status: ('A' for Active; 'I' for Inactive)
ROOT
ATOM      1  C   UNL d   1      -0.292   1.417   0.806  0.00  0.00     0.124 A 
ATOM      2  C1  UNL d   1       0.309   1.493  -0.443  0.00  0.00     0.062 A 
ATOM      3  C2  UNL d   1       0.357   0.371  -1.266  0.00  0.00     0.162 A 
ATOM      4  C3  UNL d   1      -0.199  -0.836  -0.844  0.00  0.00    -0.034 A 
ATOM      5  C4  UNL d   1      -0.801  -0.905   0.414  0.00  0.00     0.162 A 
ATOM      6  C5  UNL d   1      -0.846   0.218   1.233  0.00  0.00     0.062 A 
ATOM      7  F   UNL d   1      -1.427   0.143   2.439  0.00  0.00    -0.097 F 
ATOM      8  F1  UNL d   1      -1.345  -2.050   0.852  0.00  0.00    -0.096 F 
ATOM      9  I   UNL d   1      -0.129  -2.515  -2.072  0.00  0.00    -0.060 I 
ATOM     10  F2  UNL d   1       0.944   0.474  -2.468  0.00  0.00    -0.096 F 
ATOM     11  F3  UNL d   1       0.846   2.649  -0.858  0.00  0.00    -0.097 F 
ATOM     12  F4  UNL d   1      -0.336   2.497   1.596  0.00  0.00    -0.092 F 
ENDROOT
TORSDOF 0
ENDMDL
