MODEL 1
REMARK minimizedAffinity -4.43072844
REMARK minimizedRMSD -1
REMARK  0 active torsions:
REMARK  status: ('A' for Active; 'I' for Inactive)
ROOT
ATOM      1  C   UNL d   1       1.599   2.508   0.502  0.00  0.00     0.124 A 
ATOM      2  C1  UNL d   1       0.420   2.398  -0.222  0.00  0.00     0.062 A 
ATOM      3  C2  UNL d   1      -0.148   1.148  -0.449  0.00  0.00     0.162 A 
ATOM      4  C3  UNL d   1       0.463  -0.003   0.049  0.00  0.00    -0.034 A 
ATOM      5  C4  UNL d   1       1.649   0.115   0.775  0.00  0.00     0.162 A 
ATOM      6  C5  UNL d   1       2.212   1.367   1.000  0.00  0.00     0.062 A 
ATOM      7  F   UNL d   1       3.351   1.471   1.700  0.00  0.00    -0.097 F 
ATOM      8  F1  UNL d   1       2.262  -0.971   1.268  0.00  0.00    -0.096 F 
ATOM      9  I   UNL d   1      -0.383  -1.875  -0.289  0.00  0.00    -0.060 I 
ATOM     10  F2  UNL d   1      -1.288   1.071  -1.152  0.00  0.00    -0.096 F 
ATOM     11  F3  UNL d   1      -0.174   3.499  -0.704  0.00  0.00    -0.097 F 
ATOM     12  F4  UNL d   1       2.144   3.712   0.719  0.00  0.00    -0.092 F 
ENDROOT
TORSDOF 0
ENDMDL
