MODEL 1
REMARK minimizedAffinity -3.25500178
REMARK minimizedRMSD -1
REMARK  0 active torsions:
REMARK  status: ('A' for Active; 'I' for Inactive)
ROOT
ATOM      1  C   UNL d   1       0.292   2.619   0.270  0.00  0.00     0.124 A 
ATOM      2  C1  UNL d   1       1.237   1.750  -0.259  0.00  0.00     0.062 A 
ATOM      3  C2  UNL d   1       0.957   0.390  -0.360  0.00  0.00     0.162 A 
ATOM      4  C3  UNL d   1      -0.273  -0.110   0.068  0.00  0.00    -0.034 A 
ATOM      5  C4  UNL d   1      -1.217   0.770   0.599  0.00  0.00     0.162 A 
ATOM      6  C5  UNL d   1      -0.933   2.128   0.698  0.00  0.00     0.062 A 
ATOM      7  F   UNL d   1      -1.847   2.966   1.209  0.00  0.00    -0.097 F 
ATOM      8  F1  UNL d   1      -2.410   0.323   1.020  0.00  0.00    -0.096 F 
ATOM      9  I   UNL d   1      -0.694  -2.143  -0.081  0.00  0.00    -0.060 I 
ATOM     10  F2  UNL d   1       1.889  -0.427  -0.874  0.00  0.00    -0.096 F 
ATOM     11  F3  UNL d   1       2.422   2.221  -0.673  0.00  0.00    -0.097 F 
ATOM     12  F4  UNL d   1       0.564   3.926   0.366  0.00  0.00    -0.092 F 
ENDROOT
TORSDOF 0
ENDMDL
