MODEL 1
REMARK minimizedAffinity 0.643686652
REMARK minimizedRMSD -1
REMARK  0 active torsions:
REMARK  status: ('A' for Active; 'I' for Inactive)
ROOT
ATOM      1  C   UNL d   1      -0.392  -0.247   0.387  0.00  0.00     0.124 A 
ATOM      2  C1  UNL d   1       0.973  -0.036   0.252  0.00  0.00     0.062 A 
ATOM      3  C2  UNL d   1       1.479   1.259   0.192  0.00  0.00     0.162 A 
ATOM      4  C3  UNL d   1       0.619   2.354   0.268  0.00  0.00    -0.034 A 
ATOM      5  C4  UNL d   1      -0.753   2.134   0.404  0.00  0.00     0.162 A 
ATOM      6  C5  UNL d   1      -1.254   0.838   0.463  0.00  0.00     0.062 A 
ATOM      7  F   UNL d   1      -2.573   0.636   0.594  0.00  0.00    -0.097 F 
ATOM      8  F1  UNL d   1      -1.608   3.165   0.481  0.00  0.00    -0.096 F 
ATOM      9  I   UNL d   1       1.371   4.293   0.179  0.00  0.00    -0.060 I 
ATOM     10  F2  UNL d   1       2.802   1.433   0.060  0.00  0.00    -0.096 F 
ATOM     11  F3  UNL d   1       1.808  -1.083   0.177  0.00  0.00    -0.097 F 
ATOM     12  F4  UNL d   1      -0.876  -1.495   0.444  0.00  0.00    -0.092 F 
ENDROOT
TORSDOF 0
ENDMDL
