MODEL 1
REMARK minimizedAffinity -1.06164968
REMARK minimizedRMSD -1
REMARK  0 active torsions:
REMARK  status: ('A' for Active; 'I' for Inactive)
ROOT
ATOM      1  C   UNL d   1      -1.340   2.071   0.423  0.00  0.00     0.124 A 
ATOM      2  C1  UNL d   1      -1.142   0.740   0.766  0.00  0.00     0.062 A 
ATOM      3  C2  UNL d   1       0.140   0.198   0.755  0.00  0.00     0.162 A 
ATOM      4  C3  UNL d   1       1.235   0.987   0.401  0.00  0.00    -0.034 A 
ATOM      5  C4  UNL d   1       1.027   2.324   0.057  0.00  0.00     0.162 A 
ATOM      6  C5  UNL d   1      -0.256   2.861   0.069  0.00  0.00     0.062 A 
ATOM      7  F   UNL d   1      -0.446   4.147  -0.262  0.00  0.00    -0.097 F 
ATOM      8  F1  UNL d   1       2.057   3.111  -0.288  0.00  0.00    -0.096 F 
ATOM      9  I   UNL d   1       3.153   0.181   0.384  0.00  0.00    -0.060 I 
ATOM     10  F2  UNL d   1       0.302  -1.090   1.090  0.00  0.00    -0.096 F 
ATOM     11  F3  UNL d   1      -2.188  -0.026   1.107  0.00  0.00    -0.097 F 
ATOM     12  F4  UNL d   1      -2.575   2.589   0.434  0.00  0.00    -0.092 F 
ENDROOT
TORSDOF 0
ENDMDL
