MODEL 1
REMARK minimizedAffinity -6.00642967
REMARK minimizedRMSD -1
REMARK  0 active torsions:
REMARK  status: ('A' for Active; 'I' for Inactive)
ROOT
ATOM      1  C   UNL d   1       2.714   1.553   0.689  0.00  0.00     0.124 A 
ATOM      2  C1  UNL d   1       2.171   0.297   0.922  0.00  0.00     0.062 A 
ATOM      3  C2  UNL d   1       0.794   0.104   0.843  0.00  0.00     0.162 A 
ATOM      4  C3  UNL d   1      -0.049   1.170   0.529  0.00  0.00    -0.034 A 
ATOM      5  C4  UNL d   1       0.505   2.431   0.298  0.00  0.00     0.162 A 
ATOM      6  C5  UNL d   1       1.882   2.618   0.378  0.00  0.00     0.062 A 
ATOM      7  F   UNL d   1       2.405   3.832   0.153  0.00  0.00    -0.097 F 
ATOM      8  F1  UNL d   1      -0.276   3.478  -0.006  0.00  0.00    -0.096 F 
ATOM      9  I   UNL d   1      -2.107   0.887   0.411  0.00  0.00    -0.060 I 
ATOM     10  F2  UNL d   1       0.297  -1.120   1.072  0.00  0.00    -0.096 F 
ATOM     11  F3  UNL d   1       2.973  -0.734   1.224  0.00  0.00    -0.097 F 
ATOM     12  F4  UNL d   1       4.039   1.735   0.767  0.00  0.00    -0.092 F 
ENDROOT
TORSDOF 0
ENDMDL
