MODEL 1
REMARK minimizedAffinity 1.85654092
REMARK minimizedRMSD -1
REMARK  0 active torsions:
REMARK  status: ('A' for Active; 'I' for Inactive)
ROOT
ATOM      1  C   UNL d   1       0.260   2.400   0.836  0.00  0.00     0.124 A 
ATOM      2  C1  UNL d   1      -1.010   2.112   0.358  0.00  0.00     0.062 A 
ATOM      3  C2  UNL d   1      -1.329   0.819  -0.049  0.00  0.00     0.162 A 
ATOM      4  C3  UNL d   1      -0.375  -0.196   0.021  0.00  0.00    -0.034 A 
ATOM      5  C4  UNL d   1       0.902   0.102   0.502  0.00  0.00     0.162 A 
ATOM      6  C5  UNL d   1       1.215   1.395   0.908  0.00  0.00     0.062 A 
ATOM      7  F   UNL d   1       2.443   1.671   1.369  0.00  0.00    -0.097 F 
ATOM      8  F1  UNL d   1       1.843  -0.850   0.583  0.00  0.00    -0.096 F 
ATOM      9  I   UNL d   1      -0.847  -2.129  -0.587  0.00  0.00    -0.060 I 
ATOM     10  F2  UNL d   1      -2.565   0.570  -0.507  0.00  0.00    -0.096 F 
ATOM     11  F3  UNL d   1      -1.934   3.081   0.287  0.00  0.00    -0.097 F 
ATOM     12  F4  UNL d   1       0.564   3.644   1.227  0.00  0.00    -0.092 F 
ENDROOT
TORSDOF 0
ENDMDL
