MODEL 1
REMARK minimizedAffinity -4.0668745
REMARK minimizedRMSD -1
REMARK  0 active torsions:
REMARK  status: ('A' for Active; 'I' for Inactive)
ROOT
ATOM      1  C   UNL d   1       1.351   2.798   0.641  0.00  0.00     0.124 A 
ATOM      2  C1  UNL d   1       0.068   2.549   0.174  0.00  0.00     0.062 A 
ATOM      3  C2  UNL d   1      -0.323   1.251  -0.141  0.00  0.00     0.162 A 
ATOM      4  C3  UNL d   1       0.570   0.191   0.011  0.00  0.00    -0.034 A 
ATOM      5  C4  UNL d   1       1.860   0.449   0.480  0.00  0.00     0.162 A 
ATOM      6  C5  UNL d   1       2.246   1.748   0.793  0.00  0.00     0.062 A 
ATOM      7  F   UNL d   1       3.486   1.987   1.244  0.00  0.00    -0.097 F 
ATOM      8  F1  UNL d   1       2.744  -0.547   0.637  0.00  0.00    -0.096 F 
ATOM      9  I   UNL d   1      -0.010  -1.752  -0.459  0.00  0.00    -0.060 I 
ATOM     10  F2  UNL d   1      -1.569   1.040  -0.590  0.00  0.00    -0.096 F 
ATOM     11  F3  UNL d   1      -0.798   3.562   0.025  0.00  0.00    -0.097 F 
ATOM     12  F4  UNL d   1       1.725   4.048   0.942  0.00  0.00    -0.092 F 
ENDROOT
TORSDOF 0
ENDMDL
