MODEL 1
REMARK minimizedAffinity -1.48868525
REMARK minimizedRMSD -1
REMARK  0 active torsions:
REMARK  status: ('A' for Active; 'I' for Inactive)
ROOT
ATOM      1  C   UNL d   1       1.083   0.978  -0.263  0.00  0.00     0.124 A 
ATOM      2  C1  UNL d   1       0.452   2.173   0.052  0.00  0.00     0.062 A 
ATOM      3  C2  UNL d   1      -0.917   2.198   0.301  0.00  0.00     0.162 A 
ATOM      4  C3  UNL d   1      -1.665   1.023   0.236  0.00  0.00    -0.034 A 
ATOM      5  C4  UNL d   1      -1.024  -0.176  -0.083  0.00  0.00     0.162 A 
ATOM      6  C5  UNL d   1       0.345  -0.195  -0.331  0.00  0.00     0.062 A 
ATOM      7  F   UNL d   1       0.952  -1.351  -0.636  0.00  0.00    -0.097 F 
ATOM      8  F1  UNL d   1      -1.713  -1.324  -0.155  0.00  0.00    -0.096 F 
ATOM      9  I   UNL d   1      -3.713   1.055   0.606  0.00  0.00    -0.060 I 
ATOM     10  F2  UNL d   1      -1.500   3.367   0.603  0.00  0.00    -0.096 F 
ATOM     11  F3  UNL d   1       1.164   3.308   0.117  0.00  0.00    -0.097 F 
ATOM     12  F4  UNL d   1       2.401   0.957  -0.503  0.00  0.00    -0.092 F 
ENDROOT
TORSDOF 0
ENDMDL
