MODEL 1
REMARK minimizedAffinity 4.37283802
REMARK minimizedRMSD -1
REMARK  0 active torsions:
REMARK  status: ('A' for Active; 'I' for Inactive)
ROOT
ATOM      1  O1  BZF d   1       3.801  -1.882   0.634  0.00  0.00    -0.204 OA
ATOM      2  C2  BZF d   1       3.090  -2.273  -0.484  0.00  0.00     0.174 A 
ATOM      3  C3  BZF d   1       2.921  -1.237  -1.330  0.00  0.00    -0.012 A 
ATOM      4  C3A BZF d   1       3.646  -0.151  -0.744  0.00  0.00    -0.107 A 
ATOM      5  C4  BZF d   1       3.868   1.142  -1.123  0.00  0.00     0.055 A 
ATOM      6  C5  BZF d   1       4.558   1.965  -0.290  0.00  0.00    -0.016 A 
ATOM      7  C6  BZF d   1       5.036   1.530   0.928  0.00  0.00     0.022 A 
ATOM      8  C7  BZF d   1       4.845   0.254   1.345  0.00  0.00     0.029 A 
ATOM      9  C7A BZF d   1       4.176  -0.589   0.491  0.00  0.00     0.058 A 
ENDROOT
TORSDOF 0
ENDMDL
