MODEL 1
REMARK minimizedAffinity -3.83426523
REMARK minimizedRMSD -1
REMARK  0 active torsions:
REMARK  status: ('A' for Active; 'I' for Inactive)
ROOT
ATOM      1  O1  BZF d   1       3.108   5.206   5.253  0.00  0.00    -0.204 OA
ATOM      2  C2  BZF d   1       1.898   4.837   5.808  0.00  0.00     0.174 A 
ATOM      3  C3  BZF d   1       1.846   3.503   5.998  0.00  0.00    -0.012 A 
ATOM      4  C3A BZF d   1       3.137   3.018   5.619  0.00  0.00    -0.107 A 
ATOM      5  C4  BZF d   1       3.706   1.776   5.600  0.00  0.00     0.055 A 
ATOM      6  C5  BZF d   1       4.963   1.633   5.104  0.00  0.00    -0.016 A 
ATOM      7  C6  BZF d   1       5.677   2.707   4.614  0.00  0.00     0.022 A 
ATOM      8  C7  BZF d   1       5.157   3.958   4.615  0.00  0.00     0.029 A 
ATOM      9  C7A BZF d   1       3.900   4.112   5.147  0.00  0.00     0.058 A 
ENDROOT
TORSDOF 0
ENDMDL
