MODEL 1
REMARK minimizedAffinity 2.62545466
REMARK minimizedRMSD -1
REMARK  0 active torsions:
REMARK  status: ('A' for Active; 'I' for Inactive)
ROOT
ATOM      1  O1  BZF d   1       3.129   5.587   5.653  0.00  0.00    -0.204 OA
ATOM      2  C2  BZF d   1       1.820   5.257   5.945  0.00  0.00     0.174 A 
ATOM      3  C3  BZF d   1       1.664   3.919   6.000  0.00  0.00    -0.012 A 
ATOM      4  C3A BZF d   1       2.976   3.379   5.815  0.00  0.00    -0.107 A 
ATOM      5  C4  BZF d   1       3.473   2.108   5.785  0.00  0.00     0.055 A 
ATOM      6  C5  BZF d   1       4.791   1.920   5.511  0.00  0.00    -0.016 A 
ATOM      7  C6  BZF d   1       5.638   2.978   5.257  0.00  0.00     0.022 A 
ATOM      8  C7  BZF d   1       5.192   4.258   5.281  0.00  0.00     0.029 A 
ATOM      9  C7A BZF d   1       3.868   4.453   5.590  0.00  0.00     0.058 A 
ENDROOT
TORSDOF 0
ENDMDL
