MODEL 1
REMARK minimizedAffinity -0.997497022
REMARK minimizedRMSD -1
REMARK  0 active torsions:
REMARK  status: ('A' for Active; 'I' for Inactive)
ROOT
ATOM      1  O1  BZF d   1       4.484   2.325   5.996  0.00  0.00    -0.204 OA
ATOM      2  C2  BZF d   1       3.378   1.496   5.999  0.00  0.00     0.174 A 
ATOM      3  C3  BZF d   1       2.239   2.218   6.000  0.00  0.00    -0.012 A 
ATOM      4  C3A BZF d   1       2.659   3.583   5.905  0.00  0.00    -0.107 A 
ATOM      5  C4  BZF d   1       1.986   4.770   5.846  0.00  0.00     0.055 A 
ATOM      6  C5  BZF d   1       2.693   5.930   5.832  0.00  0.00    -0.016 A 
ATOM      7  C6  BZF d   1       4.072   5.940   5.879  0.00  0.00     0.022 A 
ATOM      8  C7  BZF d   1       4.783   4.788   5.933  0.00  0.00     0.029 A 
ATOM      9  C7A BZF d   1       4.072   3.613   5.914  0.00  0.00     0.058 A 
ENDROOT
TORSDOF 0
ENDMDL
