MODEL 1
REMARK minimizedAffinity 5.56361055
REMARK minimizedRMSD -1
REMARK  0 active torsions:
REMARK  status: ('A' for Active; 'I' for Inactive)
ROOT
ATOM      1  O1  BZF d   1      -4.137   5.014  -0.032  0.00  0.00    -0.204 OA
ATOM      2  C2  BZF d   1      -3.040   5.264   0.770  0.00  0.00     0.174 A 
ATOM      3  C3  BZF d   1      -2.849   4.258   1.647  0.00  0.00    -0.012 A 
ATOM      4  C3A BZF d   1      -3.836   3.276   1.314  0.00  0.00    -0.107 A 
ATOM      5  C4  BZF d   1      -4.141   2.044   1.817  0.00  0.00     0.055 A 
ATOM      6  C5  BZF d   1      -5.211   1.373   1.316  0.00  0.00    -0.016 A 
ATOM      7  C6  BZF d   1      -5.999   1.905   0.317  0.00  0.00     0.022 A 
ATOM      8  C7  BZF d   1      -5.732   3.122  -0.218  0.00  0.00     0.029 A 
ATOM      9  C7A BZF d   1      -4.632   3.788   0.264  0.00  0.00     0.058 A 
ENDROOT
TORSDOF 0
ENDMDL
