MODEL 1
REMARK minimizedAffinity 1.04450631
REMARK minimizedRMSD -1
REMARK  0 active torsions:
REMARK  status: ('A' for Active; 'I' for Inactive)
ROOT
ATOM      1  O1  BZF d   1       2.842   5.879   5.172  0.00  0.00    -0.204 OA
ATOM      2  C2  BZF d   1       1.560   5.681   5.650  0.00  0.00     0.174 A 
ATOM      3  C3  BZF d   1       1.374   4.391   5.999  0.00  0.00    -0.012 A 
ATOM      4  C3A BZF d   1       2.645   3.763   5.809  0.00  0.00    -0.107 A 
ATOM      5  C4  BZF d   1       3.101   2.490   6.000  0.00  0.00     0.055 A 
ATOM      6  C5  BZF d   1       4.378   2.186   5.649  0.00  0.00    -0.016 A 
ATOM      7  C6  BZF d   1       5.224   3.127   5.100  0.00  0.00     0.022 A 
ATOM      8  C7  BZF d   1       4.819   4.404   4.896  0.00  0.00     0.029 A 
ATOM      9  C7A BZF d   1       3.539   4.723   5.280  0.00  0.00     0.058 A 
ENDROOT
TORSDOF 0
ENDMDL
