MODEL 1
REMARK minimizedAffinity 8.29192734
REMARK minimizedRMSD -1
REMARK  0 active torsions:
REMARK  status: ('A' for Active; 'I' for Inactive)
ROOT
ATOM      1  O1  BZF d   1       4.657   0.884   5.654  0.00  0.00    -0.204 OA
ATOM      2  C2  BZF d   1       3.309   0.615   5.791  0.00  0.00     0.174 A 
ATOM      3  C3  BZF d   1       2.613   1.751   6.000  0.00  0.00    -0.012 A 
ATOM      4  C3A BZF d   1       3.575   2.805   5.900  0.00  0.00    -0.107 A 
ATOM      5  C4  BZF d   1       3.491   4.165   5.998  0.00  0.00     0.055 A 
ATOM      6  C5  BZF d   1       4.630   4.903   5.924  0.00  0.00    -0.016 A 
ATOM      7  C6  BZF d   1       5.867   4.316   5.759  0.00  0.00     0.022 A 
ATOM      8  C7  BZF d   1       5.999   2.971   5.652  0.00  0.00     0.029 A 
ATOM      9  C7A BZF d   1       4.847   2.225   5.693  0.00  0.00     0.058 A 
ENDROOT
TORSDOF 0
ENDMDL
