MODEL 1
REMARK minimizedAffinity 13.5973434
REMARK minimizedRMSD -1
REMARK  0 active torsions:
REMARK  status: ('A' for Active; 'I' for Inactive)
ROOT
ATOM      1  O1  BZF d   1       1.730  -4.268  -0.117  0.00  0.00    -0.204 OA
ATOM      2  C2  BZF d   1       2.261  -3.053  -0.504  0.00  0.00     0.174 A 
ATOM      3  C3  BZF d   1       1.376  -2.358  -1.248  0.00  0.00    -0.012 A 
ATOM      4  C3A BZF d   1       0.185  -3.151  -1.252  0.00  0.00    -0.107 A 
ATOM      5  C4  BZF d   1      -1.051  -2.985  -1.809  0.00  0.00     0.055 A 
ATOM      6  C5  BZF d   1      -1.969  -3.980  -1.688  0.00  0.00    -0.016 A 
ATOM      7  C6  BZF d   1      -1.683  -5.155  -1.023  0.00  0.00     0.022 A 
ATOM      8  C7  BZF d   1      -0.473  -5.363  -0.450  0.00  0.00     0.029 A 
ATOM      9  C7A BZF d   1       0.446  -4.346  -0.542  0.00  0.00     0.058 A 
ENDROOT
TORSDOF 0
ENDMDL
