MODEL 1
REMARK minimizedAffinity -1.68366456
REMARK minimizedRMSD -1
REMARK  0 active torsions:
REMARK  status: ('A' for Active; 'I' for Inactive)
ROOT
ATOM      1  O1  BZF d   1       4.331   1.386   4.410  0.00  0.00    -0.204 OA
ATOM      2  C2  BZF d   1       3.237   1.133   5.215  0.00  0.00     0.174 A 
ATOM      3  C3  BZF d   1       2.964   2.195   6.000  0.00  0.00    -0.012 A 
ATOM      4  C3A BZF d   1       3.892   3.208   5.599  0.00  0.00    -0.107 A 
ATOM      5  C4  BZF d   1       4.109   4.495   6.000  0.00  0.00     0.055 A 
ATOM      6  C5  BZF d   1       5.143   5.190   5.458  0.00  0.00    -0.016 A 
ATOM      7  C6  BZF d   1       5.983   4.629   4.519  0.00  0.00     0.022 A 
ATOM      8  C7  BZF d   1       5.805   3.357   4.087  0.00  0.00     0.029 A 
ATOM      9  C7A BZF d   1       4.741   2.662   4.608  0.00  0.00     0.058 A 
ENDROOT
TORSDOF 0
ENDMDL
