MODEL 1
REMARK minimizedAffinity 5.79658699
REMARK minimizedRMSD -1
REMARK  0 active torsions:
REMARK  status: ('A' for Active; 'I' for Inactive)
ROOT
ATOM      1  O1  BZF d   1       4.898   4.592   3.715  0.00  0.00    -0.204 OA
ATOM      2  C2  BZF d   1       5.747   3.771   2.999  0.00  0.00     0.174 A 
ATOM      3  C3  BZF d   1       5.544   2.476   3.319  0.00  0.00    -0.012 A 
ATOM      4  C3A BZF d   1       4.439   2.482   4.228  0.00  0.00    -0.107 A 
ATOM      5  C4  BZF d   1       3.758   1.498   4.885  0.00  0.00     0.055 A 
ATOM      6  C5  BZF d   1       2.775   1.843   5.757  0.00  0.00    -0.016 A 
ATOM      7  C6  BZF d   1       2.450   3.162   6.000  0.00  0.00     0.022 A 
ATOM      8  C7  BZF d   1       3.094   4.173   5.368  0.00  0.00     0.029 A 
ATOM      9  C7A BZF d   1       4.066   3.826   4.462  0.00  0.00     0.058 A 
ENDROOT
TORSDOF 0
ENDMDL
