MODEL 1
REMARK minimizedAffinity -2.43604565
REMARK minimizedRMSD -1
REMARK  0 active torsions:
REMARK  status: ('A' for Active; 'I' for Inactive)
ROOT
ATOM      1  C2' OXE d   1       2.725  -0.318   0.491  0.00  0.00     0.078 C 
ATOM      2  C1' OXE d   1       2.169  -1.097   3.129  0.00  0.00     0.078 C 
ATOM      3  C1  OXE d   1       1.001  -0.871   2.202  0.00  0.00    -0.078 A 
ATOM      4  C2  OXE d   1       1.281  -0.445   0.926  0.00  0.00    -0.078 A 
ATOM      5  C3  OXE d   1       0.244  -0.274   0.013  0.00  0.00     0.003 A 
ATOM      6  C4  OXE d   1      -1.089  -0.383   0.427  0.00  0.00    -0.002 A 
ATOM      7  C5  OXE d   1      -1.397  -0.778   1.733  0.00  0.00    -0.002 A 
ATOM      8  C6  OXE d   1      -0.365  -1.066   2.619  0.00  0.00     0.003 A 
ENDROOT
TORSDOF 0
ENDMDL
