MODEL 1
REMARK minimizedAffinity 2.11658931
REMARK minimizedRMSD -1
REMARK  0 active torsions:
REMARK  status: ('A' for Active; 'I' for Inactive)
ROOT
ATOM      1  C2' OXE d   1       2.277   0.481  -0.076  0.00  0.00     0.078 C 
ATOM      2  C1' OXE d   1       2.860  -0.813   2.346  0.00  0.00     0.078 C 
ATOM      3  C1  OXE d   1       1.426  -0.808   1.878  0.00  0.00    -0.078 A 
ATOM      4  C2  OXE d   1       1.143  -0.133   0.715  0.00  0.00    -0.078 A 
ATOM      5  C3  OXE d   1      -0.154  -0.144   0.210  0.00  0.00     0.003 A 
ATOM      6  C4  OXE d   1      -1.200  -0.705   0.953  0.00  0.00    -0.002 A 
ATOM      7  C5  OXE d   1      -0.939  -1.364   2.160  0.00  0.00    -0.002 A 
ATOM      8  C6  OXE d   1       0.371  -1.461   2.614  0.00  0.00     0.003 A 
ENDROOT
TORSDOF 0
ENDMDL
