MODEL 1
REMARK minimizedAffinity -3.73703337
REMARK minimizedRMSD -1
REMARK  0 active torsions:
REMARK  status: ('A' for Active; 'I' for Inactive)
ROOT
ATOM      1  C2' OXE d   1       2.584  -1.148  -0.016  0.00  0.00     0.078 C 
ATOM      2  C1' OXE d   1       1.306  -0.915   2.473  0.00  0.00     0.078 C 
ATOM      3  C1  OXE d   1       0.524  -0.531   1.242  0.00  0.00    -0.078 A 
ATOM      4  C2  OXE d   1       1.172  -0.604   0.032  0.00  0.00    -0.078 A 
ATOM      5  C3  OXE d   1       0.479  -0.313  -1.139  0.00  0.00     0.003 A 
ATOM      6  C4  OXE d   1      -0.823   0.199  -1.085  0.00  0.00    -0.002 A 
ATOM      7  C5  OXE d   1      -1.488   0.318   0.140  0.00  0.00    -0.002 A 
ATOM      8  C6  OXE d   1      -0.845  -0.082   1.306  0.00  0.00     0.003 A 
ENDROOT
TORSDOF 0
ENDMDL
