MODEL 1
REMARK minimizedAffinity -4.75486183
REMARK minimizedRMSD -1
REMARK  0 active torsions:
REMARK  status: ('A' for Active; 'I' for Inactive)
ROOT
ATOM      1  C2' OXE d   1      -1.478   0.238   1.458  0.00  0.00     0.078 C 
ATOM      2  C1' OXE d   1      -0.552  -0.147  -1.164  0.00  0.00     0.078 C 
ATOM      3  C1  OXE d   1       0.222  -0.794  -0.043  0.00  0.00    -0.078 A 
ATOM      4  C2  OXE d   1      -0.211  -0.561   1.241  0.00  0.00    -0.078 A 
ATOM      5  C3  OXE d   1       0.434  -1.179   2.308  0.00  0.00     0.003 A 
ATOM      6  C4  OXE d   1       1.611  -1.908   2.099  0.00  0.00    -0.002 A 
ATOM      7  C5  OXE d   1       2.092  -2.124   0.804  0.00  0.00    -0.002 A 
ATOM      8  C6  OXE d   1       1.387  -1.610  -0.279  0.00  0.00     0.003 A 
ENDROOT
TORSDOF 0
ENDMDL
