MODEL 1
REMARK minimizedAffinity -5.58320951
REMARK minimizedRMSD -1
REMARK  0 active torsions:
REMARK  status: ('A' for Active; 'I' for Inactive)
ROOT
ATOM      1  C2' OXE d   1      -1.197   0.134   1.074  0.00  0.00     0.078 C 
ATOM      2  C1' OXE d   1       0.198  -0.393  -1.305  0.00  0.00     0.078 C 
ATOM      3  C1  OXE d   1       0.806  -0.876  -0.011  0.00  0.00    -0.078 A 
ATOM      4  C2  OXE d   1       0.140  -0.572   1.152  0.00  0.00    -0.078 A 
ATOM      5  C3  OXE d   1       0.628  -1.041   2.368  0.00  0.00     0.003 A 
ATOM      6  C4  OXE d   1       1.870  -1.685   2.433  0.00  0.00    -0.002 A 
ATOM      7  C5  OXE d   1       2.584  -1.969   1.264  0.00  0.00    -0.002 A 
ATOM      8  C6  OXE d   1       2.046  -1.609   0.033  0.00  0.00     0.003 A 
ENDROOT
TORSDOF 0
ENDMDL
