MODEL 1
REMARK minimizedAffinity -2.85110354
REMARK minimizedRMSD -1
REMARK  0 active torsions:
REMARK  status: ('A' for Active; 'I' for Inactive)
ROOT
ATOM      1  C2' OXE d   1       1.792  -0.443  -0.891  0.00  0.00     0.078 C 
ATOM      2  C1' OXE d   1      -0.860  -1.309  -0.575  0.00  0.00     0.078 C 
ATOM      3  C1  OXE d   1       0.000  -1.213   0.660  0.00  0.00    -0.078 A 
ATOM      4  C2  OXE d   1       1.310  -0.833   0.490  0.00  0.00    -0.078 A 
ATOM      5  C3  OXE d   1       2.132  -0.676   1.603  0.00  0.00     0.003 A 
ATOM      6  C4  OXE d   1       1.681  -1.048   2.875  0.00  0.00    -0.002 A 
ATOM      7  C5  OXE d   1       0.363  -1.475   3.064  0.00  0.00    -0.002 A 
ATOM      8  C6  OXE d   1      -0.501  -1.523   1.976  0.00  0.00     0.003 A 
ENDROOT
TORSDOF 0
ENDMDL
