MODEL 1
REMARK minimizedAffinity -5.04180098
REMARK minimizedRMSD -1
REMARK  0 active torsions:
REMARK  status: ('A' for Active; 'I' for Inactive)
ROOT
ATOM      1  C2' OXE d   1      -1.693  -1.319   0.492  0.00  0.00     0.078 C 
ATOM      2  C1' OXE d   1       0.278  -0.621  -1.380  0.00  0.00     0.078 C 
ATOM      3  C1  OXE d   1       0.675  -0.667   0.074  0.00  0.00    -0.078 A 
ATOM      4  C2  OXE d   1      -0.308  -0.964   0.988  0.00  0.00    -0.078 A 
ATOM      5  C3  OXE d   1       0.016  -1.074   2.337  0.00  0.00     0.003 A 
ATOM      6  C4  OXE d   1       1.297  -0.734   2.789  0.00  0.00    -0.002 A 
ATOM      7  C5  OXE d   1       2.303  -0.390   1.878  0.00  0.00    -0.002 A 
ATOM      8  C6  OXE d   1       2.020  -0.394   0.517  0.00  0.00     0.003 A 
ENDROOT
TORSDOF 0
ENDMDL
