MODEL 1
REMARK minimizedAffinity -3.21098137
REMARK minimizedRMSD -1
REMARK  0 active torsions:
REMARK  status: ('A' for Active; 'I' for Inactive)
ROOT
ATOM      1  C1  DEN d   1      -4.482  -0.886  -5.369  0.00  0.00     0.130 A 
ATOM      2  C2  DEN d   1      -5.481  -0.764  -4.311  0.00  0.00    -0.031 A 
ATOM      3  C3  DEN d   1      -5.383  -1.960  -3.451  0.00  0.00     0.027 A 
ATOM      4  C4  DEN d   1      -3.788  -3.977  -3.652  0.00  0.00     0.027 A 
ATOM      5  C5  DEN d   1      -2.771  -4.534  -4.395  0.00  0.00    -0.003 A 
ATOM      6  C6  DEN d   1      -2.280  -3.936  -5.526  0.00  0.00     0.001 A 
ATOM      7  C7  DEN d   1      -2.776  -2.721  -5.920  0.00  0.00     0.017 A 
ATOM      8  C8  DEN d   1      -3.806  -2.156  -5.180  0.00  0.00    -0.094 A 
ATOM      9  C9  DEN d   1      -4.280  -2.771  -4.033  0.00  0.00    -0.072 A 
ENDROOT
TORSDOF 0
ENDMDL
