MODEL 1
REMARK minimizedAffinity -2.90367603
REMARK minimizedRMSD -1
REMARK  0 active torsions:
REMARK  status: ('A' for Active; 'I' for Inactive)
ROOT
ATOM      1  C1  DEN d   1      -5.384  -3.072  -3.370  0.00  0.00     0.130 A 
ATOM      2  C2  DEN d   1      -6.000  -2.249  -4.407  0.00  0.00    -0.031 A 
ATOM      3  C3  DEN d   1      -5.168  -2.350  -5.623  0.00  0.00     0.027 A 
ATOM      4  C4  DEN d   1      -3.001  -3.697  -6.000  0.00  0.00     0.027 A 
ATOM      5  C5  DEN d   1      -2.086  -4.540  -5.408  0.00  0.00    -0.003 A 
ATOM      6  C6  DEN d   1      -2.187  -4.922  -4.097  0.00  0.00     0.001 A 
ATOM      7  C7  DEN d   1      -3.250  -4.497  -3.346  0.00  0.00     0.017 A 
ATOM      8  C8  DEN d   1      -4.173  -3.641  -3.933  0.00  0.00    -0.094 A 
ATOM      9  C9  DEN d   1      -4.061  -3.276  -5.264  0.00  0.00    -0.072 A 
ENDROOT
TORSDOF 0
ENDMDL
