MODEL 1
REMARK minimizedAffinity -2.216712
REMARK minimizedRMSD -1
REMARK  0 active torsions:
REMARK  status: ('A' for Active; 'I' for Inactive)
ROOT
ATOM      1  C1  DEN d   1      -4.670  -2.573  -5.891  0.00  0.00     0.130 A 
ATOM      2  C2  DEN d   1      -5.999  -3.107  -5.604  0.00  0.00    -0.031 A 
ATOM      3  C3  DEN d   1      -5.860  -4.549  -5.318  0.00  0.00     0.027 A 
ATOM      4  C4  DEN d   1      -3.726  -5.998  -5.286  0.00  0.00     0.027 A 
ATOM      5  C5  DEN d   1      -2.362  -5.992  -5.477  0.00  0.00    -0.003 A 
ATOM      6  C6  DEN d   1      -1.682  -4.863  -5.850  0.00  0.00     0.001 A 
ATOM      7  C7  DEN d   1      -2.359  -3.682  -6.000  0.00  0.00     0.017 A 
ATOM      8  C8  DEN d   1      -3.735  -3.681  -5.816  0.00  0.00    -0.094 A 
ATOM      9  C9  DEN d   1      -4.403  -4.830  -5.427  0.00  0.00    -0.072 A 
ENDROOT
TORSDOF 0
ENDMDL
