MODEL 1
REMARK minimizedAffinity -4.42779255
REMARK minimizedRMSD -1
REMARK  0 active torsions:
REMARK  status: ('A' for Active; 'I' for Inactive)
ROOT
ATOM      1  C1  DEN d   1      -2.059  -4.134  -4.245  0.00  0.00     0.130 A 
ATOM      2  C2  DEN d   1      -1.991  -5.345  -3.432  0.00  0.00    -0.031 A 
ATOM      3  C3  DEN d   1      -3.315  -5.999  -3.477  0.00  0.00     0.027 A 
ATOM      4  C4  DEN d   1      -5.448  -5.260  -4.724  0.00  0.00     0.027 A 
ATOM      5  C5  DEN d   1      -5.995  -4.291  -5.535  0.00  0.00    -0.003 A 
ATOM      6  C6  DEN d   1      -5.285  -3.193  -5.943  0.00  0.00     0.001 A 
ATOM      7  C7  DEN d   1      -3.972  -3.060  -5.576  0.00  0.00     0.017 A 
ATOM      8  C8  DEN d   1      -3.415  -4.029  -4.752  0.00  0.00    -0.094 A 
ATOM      9  C9  DEN d   1      -4.146  -5.138  -4.361  0.00  0.00    -0.072 A 
ENDROOT
TORSDOF 0
ENDMDL
