MODEL 1
REMARK minimizedAffinity -4.41377354
REMARK minimizedRMSD -1
REMARK  0 active torsions:
REMARK  status: ('A' for Active; 'I' for Inactive)
ROOT
ATOM      1  C1  DEN d   1      -3.002  -4.990  -6.000  0.00  0.00     0.130 A 
ATOM      2  C2  DEN d   1      -1.950  -5.378  -5.064  0.00  0.00    -0.031 A 
ATOM      3  C3  DEN d   1      -2.340  -4.910  -3.719  0.00  0.00     0.027 A 
ATOM      4  C4  DEN d   1      -4.462  -3.633  -2.998  0.00  0.00     0.027 A 
ATOM      5  C5  DEN d   1      -5.638  -3.070  -3.441  0.00  0.00    -0.003 A 
ATOM      6  C6  DEN d   1      -5.999  -3.078  -4.762  0.00  0.00     0.001 A 
ATOM      7  C7  DEN d   1      -5.196  -3.700  -5.681  0.00  0.00     0.017 A 
ATOM      8  C8  DEN d   1      -4.005  -4.263  -5.243  0.00  0.00    -0.094 A 
ATOM      9  C9  DEN d   1      -3.664  -4.255  -3.902  0.00  0.00    -0.072 A 
ENDROOT
TORSDOF 0
ENDMDL
