MODEL 1
REMARK minimizedAffinity 1.98119605
REMARK minimizedRMSD -1
REMARK  0 active torsions:
REMARK  status: ('A' for Active; 'I' for Inactive)
ROOT
ATOM      1  C1  DEN d   1      -2.151  -3.626  -5.853  0.00  0.00     0.130 A 
ATOM      2  C2  DEN d   1      -1.355  -4.851  -5.864  0.00  0.00    -0.031 A 
ATOM      3  C3  DEN d   1      -2.282  -5.998  -5.792  0.00  0.00     0.027 A 
ATOM      4  C4  DEN d   1      -4.858  -5.998  -5.669  0.00  0.00     0.027 A 
ATOM      5  C5  DEN d   1      -5.980  -5.200  -5.621  0.00  0.00    -0.003 A 
ATOM      6  C6  DEN d   1      -5.903  -3.832  -5.613  0.00  0.00     0.001 A 
ATOM      7  C7  DEN d   1      -4.680  -3.221  -5.699  0.00  0.00     0.017 A 
ATOM      8  C8  DEN d   1      -3.544  -4.019  -5.740  0.00  0.00    -0.094 A 
ATOM      9  C9  DEN d   1      -3.644  -5.400  -5.760  0.00  0.00    -0.072 A 
ENDROOT
TORSDOF 0
ENDMDL
