MODEL 1
REMARK minimizedAffinity 0.611467898
REMARK minimizedRMSD -1
REMARK  0 active torsions:
REMARK  status: ('A' for Active; 'I' for Inactive)
ROOT
ATOM      1  C1  DEN d   1      -2.190  -5.298  -3.690  0.00  0.00     0.130 A 
ATOM      2  C2  DEN d   1      -1.725  -6.000  -4.883  0.00  0.00    -0.031 A 
ATOM      3  C3  DEN d   1      -2.624  -5.647  -6.000  0.00  0.00     0.027 A 
ATOM      4  C4  DEN d   1      -4.678  -4.087  -5.999  0.00  0.00     0.027 A 
ATOM      5  C5  DEN d   1      -5.469  -3.274  -5.219  0.00  0.00    -0.003 A 
ATOM      6  C6  DEN d   1      -5.245  -3.106  -3.878  0.00  0.00     0.001 A 
ATOM      7  C7  DEN d   1      -4.177  -3.726  -3.285  0.00  0.00     0.017 A 
ATOM      8  C8  DEN d   1      -3.379  -4.553  -4.064  0.00  0.00    -0.094 A 
ATOM      9  C9  DEN d   1      -3.614  -4.700  -5.421  0.00  0.00    -0.072 A 
ENDROOT
TORSDOF 0
ENDMDL
