MODEL 1
REMARK minimizedAffinity -3.08534789
REMARK minimizedRMSD -1
REMARK  0 active torsions:
REMARK  status: ('A' for Active; 'I' for Inactive)
ROOT
ATOM      1  C1  DEN d   1      -2.125  -4.144  -4.515  0.00  0.00     0.130 A 
ATOM      2  C2  DEN d   1      -1.362  -5.123  -5.284  0.00  0.00    -0.031 A 
ATOM      3  C3  DEN d   1      -2.320  -5.989  -6.000  0.00  0.00     0.027 A 
ATOM      4  C4  DEN d   1      -4.898  -5.908  -5.995  0.00  0.00     0.027 A 
ATOM      5  C5  DEN d   1      -5.999  -5.258  -5.483  0.00  0.00    -0.003 A 
ATOM      6  C6  DEN d   1      -5.888  -4.223  -4.594  0.00  0.00     0.001 A 
ATOM      7  C7  DEN d   1      -4.647  -3.776  -4.223  0.00  0.00     0.017 A 
ATOM      8  C8  DEN d   1      -3.532  -4.430  -4.730  0.00  0.00    -0.094 A 
ATOM      9  C9  DEN d   1      -3.665  -5.468  -5.637  0.00  0.00    -0.072 A 
ENDROOT
TORSDOF 0
ENDMDL
