MODEL 1
REMARK minimizedAffinity -2.15344381
REMARK minimizedRMSD -1
REMARK  0 active torsions:
REMARK  status: ('A' for Active; 'I' for Inactive)
ROOT
ATOM      1  C1  DEN d   1      -4.570  -2.323  -5.901  0.00  0.00     0.130 A 
ATOM      2  C2  DEN d   1      -5.964  -2.739  -5.784  0.00  0.00    -0.031 A 
ATOM      3  C3  DEN d   1      -5.994  -4.213  -5.689  0.00  0.00     0.027 A 
ATOM      4  C4  DEN d   1      -4.027  -5.880  -5.709  0.00  0.00     0.027 A 
ATOM      5  C5  DEN d   1      -2.658  -6.000  -5.802  0.00  0.00    -0.003 A 
ATOM      6  C6  DEN d   1      -1.839  -4.914  -5.968  0.00  0.00     0.001 A 
ATOM      7  C7  DEN d   1      -2.379  -3.656  -6.000  0.00  0.00     0.017 A 
ATOM      8  C8  DEN d   1      -3.760  -3.527  -5.914  0.00  0.00    -0.094 A 
ATOM      9  C9  DEN d   1      -4.569  -4.636  -5.735  0.00  0.00    -0.072 A 
ENDROOT
TORSDOF 0
ENDMDL
