MODEL 1
REMARK minimizedAffinity 2.53148246
REMARK minimizedRMSD -1
REMARK  0 active torsions:
REMARK  status: ('A' for Active; 'I' for Inactive)
ROOT
ATOM      1  C1  DEN d   1      -1.440  -5.977  -5.670  0.00  0.00     0.130 A 
ATOM      2  C2  DEN d   1      -0.483  -5.620  -4.626  0.00  0.00    -0.031 A 
ATOM      3  C3  DEN d   1      -1.193  -4.812  -3.614  0.00  0.00     0.027 A 
ATOM      4  C4  DEN d   1      -3.668  -4.087  -3.560  0.00  0.00     0.027 A 
ATOM      5  C5  DEN d   1      -4.868  -4.140  -4.234  0.00  0.00    -0.003 A 
ATOM      6  C6  DEN d   1      -5.000  -4.775  -5.441  0.00  0.00     0.001 A 
ATOM      7  C7  DEN d   1      -3.924  -5.422  -5.989  0.00  0.00     0.017 A 
ATOM      8  C8  DEN d   1      -2.709  -5.366  -5.319  0.00  0.00    -0.094 A 
ATOM      9  C9  DEN d   1      -2.599  -4.730  -4.095  0.00  0.00    -0.072 A 
ENDROOT
TORSDOF 0
ENDMDL
