MODEL 1
REMARK minimizedAffinity -4.22439957
REMARK minimizedRMSD -1
REMARK  0 active torsions:
REMARK  status: ('A' for Active; 'I' for Inactive)
ROOT
ATOM      1  C1  DEN d   1      -5.755  -3.824  -4.111  0.00  0.00     0.130 A 
ATOM      2  C2  DEN d   1      -6.000  -2.788  -5.110  0.00  0.00    -0.031 A 
ATOM      3  C3  DEN d   1      -4.823  -2.724  -6.000  0.00  0.00     0.027 A 
ATOM      4  C4  DEN d   1      -2.658  -4.125  -5.929  0.00  0.00     0.027 A 
ATOM      5  C5  DEN d   1      -1.986  -5.120  -5.254  0.00  0.00    -0.003 A 
ATOM      6  C6  DEN d   1      -2.504  -5.724  -4.140  0.00  0.00     0.001 A 
ATOM      7  C7  DEN d   1      -3.750  -5.370  -3.693  0.00  0.00     0.017 A 
ATOM      8  C8  DEN d   1      -4.431  -4.363  -4.364  0.00  0.00    -0.094 A 
ATOM      9  C9  DEN d   1      -3.895  -3.773  -5.496  0.00  0.00    -0.072 A 
ENDROOT
TORSDOF 0
ENDMDL
