MODEL 1
REMARK minimizedAffinity -3.55098081
REMARK minimizedRMSD -1
REMARK  0 active torsions:
REMARK  status: ('A' for Active; 'I' for Inactive)
ROOT
ATOM      1  C1  DEN d   1      -4.648  -2.627  -4.127  0.00  0.00     0.130 A 
ATOM      2  C2  DEN d   1      -5.973  -2.727  -4.734  0.00  0.00    -0.031 A 
ATOM      3  C3  DEN d   1      -6.000  -3.939  -5.576  0.00  0.00     0.027 A 
ATOM      4  C4  DEN d   1      -4.130  -5.667  -5.993  0.00  0.00     0.027 A 
ATOM      5  C5  DEN d   1      -2.825  -6.000  -5.705  0.00  0.00    -0.003 A 
ATOM      6  C6  DEN d   1      -2.032  -5.221  -4.905  0.00  0.00     0.001 A 
ATOM      7  C7  DEN d   1      -2.551  -4.092  -4.328  0.00  0.00     0.017 A 
ATOM      8  C8  DEN d   1      -3.864  -3.746  -4.619  0.00  0.00    -0.094 A 
ATOM      9  C9  DEN d   1      -4.653  -4.553  -5.421  0.00  0.00    -0.072 A 
ENDROOT
TORSDOF 0
ENDMDL
