MODEL 1
REMARK minimizedAffinity -2.76520395
REMARK minimizedRMSD -1
REMARK  0 active torsions:
REMARK  status: ('A' for Active; 'I' for Inactive)
ROOT
ATOM      1  C1  DEN d   1      -1.896  -5.999  -6.000  0.00  0.00     0.130 A 
ATOM      2  C2  DEN d   1      -0.780  -5.581  -5.155  0.00  0.00    -0.031 A 
ATOM      3  C3  DEN d   1      -1.302  -4.647  -4.138  0.00  0.00     0.027 A 
ATOM      4  C4  DEN d   1      -3.718  -3.815  -3.787  0.00  0.00     0.027 A 
ATOM      5  C5  DEN d   1      -5.009  -3.883  -4.263  0.00  0.00    -0.003 A 
ATOM      6  C6  DEN d   1      -5.344  -4.628  -5.362  0.00  0.00     0.001 A 
ATOM      7  C7  DEN d   1      -4.384  -5.371  -5.996  0.00  0.00     0.017 A 
ATOM      8  C8  DEN d   1      -3.079  -5.302  -5.527  0.00  0.00    -0.094 A 
ATOM      9  C9  DEN d   1      -2.763  -4.553  -4.407  0.00  0.00    -0.072 A 
ENDROOT
TORSDOF 0
ENDMDL
