MODEL 1
REMARK minimizedAffinity 4.05984545
REMARK minimizedRMSD -1
REMARK  0 active torsions:
REMARK  status: ('A' for Active; 'I' for Inactive)
ROOT
ATOM      1  C1  DEN d   1      -2.101  -3.669  -4.802  0.00  0.00     0.130 A 
ATOM      2  C2  DEN d   1      -1.324  -4.803  -5.292  0.00  0.00    -0.031 A 
ATOM      3  C3  DEN d   1      -2.261  -5.905  -5.590  0.00  0.00     0.027 A 
ATOM      4  C4  DEN d   1      -4.828  -5.961  -5.346  0.00  0.00     0.027 A 
ATOM      5  C5  DEN d   1      -5.935  -5.239  -4.959  0.00  0.00    -0.003 A 
ATOM      6  C6  DEN d   1      -5.839  -3.965  -4.464  0.00  0.00     0.001 A 
ATOM      7  C7  DEN d   1      -4.614  -3.358  -4.386  0.00  0.00     0.017 A 
ATOM      8  C8  DEN d   1      -3.492  -4.082  -4.768  0.00  0.00    -0.094 A 
ATOM      9  C9  DEN d   1      -3.611  -5.364  -5.277  0.00  0.00    -0.072 A 
ENDROOT
TORSDOF 0
ENDMDL
