MODEL 1
REMARK minimizedAffinity -4.08983803
REMARK minimizedRMSD -1
REMARK  0 active torsions:
REMARK  status: ('A' for Active; 'I' for Inactive)
ROOT
ATOM      1  C1  DEN d   1      -3.404  -5.303  -4.121  0.00  0.00     0.130 A 
ATOM      2  C2  DEN d   1      -2.434  -5.254  -5.212  0.00  0.00    -0.031 A 
ATOM      3  C3  DEN d   1      -2.695  -4.033  -6.000  0.00  0.00     0.027 A 
ATOM      4  C4  DEN d   1      -4.493  -2.220  -5.635  0.00  0.00     0.027 A 
ATOM      5  C5  DEN d   1      -5.554  -1.833  -4.846  0.00  0.00    -0.003 A 
ATOM      6  C6  DEN d   1      -5.990  -2.587  -3.788  0.00  0.00     0.001 A 
ATOM      7  C7  DEN d   1      -5.334  -3.745  -3.464  0.00  0.00     0.017 A 
ATOM      8  C8  DEN d   1      -4.268  -4.145  -4.260  0.00  0.00    -0.094 A 
ATOM      9  C9  DEN d   1      -3.835  -3.363  -5.317  0.00  0.00    -0.072 A 
ENDROOT
TORSDOF 0
ENDMDL
