MODEL 1
REMARK minimizedAffinity -1.29154408
REMARK minimizedRMSD -1
REMARK  0 active torsions:
REMARK  status: ('A' for Active; 'I' for Inactive)
ROOT
ATOM      1  C1  DEN d   1      -3.000  -4.898  -3.690  0.00  0.00     0.130 A 
ATOM      2  C2  DEN d   1      -2.627  -5.653  -4.883  0.00  0.00    -0.031 A 
ATOM      3  C3  DEN d   1      -3.475  -5.191  -6.000  0.00  0.00     0.027 A 
ATOM      4  C4  DEN d   1      -5.317  -3.386  -5.999  0.00  0.00     0.027 A 
ATOM      5  C5  DEN d   1      -6.000  -2.479  -5.219  0.00  0.00    -0.003 A 
ATOM      6  C6  DEN d   1      -5.757  -2.340  -3.878  0.00  0.00     0.001 A 
ATOM      7  C7  DEN d   1      -4.774  -3.089  -3.286  0.00  0.00     0.017 A 
ATOM      8  C8  DEN d   1      -4.087  -4.011  -4.064  0.00  0.00    -0.094 A 
ATOM      9  C9  DEN d   1      -4.339  -4.127  -5.421  0.00  0.00    -0.072 A 
ENDROOT
TORSDOF 0
ENDMDL
