MODEL 1
REMARK minimizedAffinity -1.46195328
REMARK minimizedRMSD -1
REMARK  0 active torsions:
REMARK  status: ('A' for Active; 'I' for Inactive)
ROOT
ATOM      1  C1  BNZ d   1      -4.207   1.392   0.882  0.00  0.00     0.000 A 
ATOM      2  C2  BNZ d   1      -3.165   1.855   1.641  0.00  0.00     0.000 A 
ATOM      3  C3  BNZ d   1      -2.431   1.002   2.417  0.00  0.00     0.000 A 
ATOM      4  C4  BNZ d   1      -2.765  -0.304   2.465  0.00  0.00     0.000 A 
ATOM      5  C5  BNZ d   1      -3.819  -0.784   1.714  0.00  0.00     0.000 A 
ATOM      6  C6  BNZ d   1      -4.531   0.070   0.904  0.00  0.00     0.000 A 
ENDROOT
TORSDOF 0
ENDMDL
