MODEL 1
REMARK minimizedAffinity -5.25074959
REMARK minimizedRMSD -1
REMARK  0 active torsions:
REMARK  status: ('A' for Active; 'I' for Inactive)
ROOT
ATOM      1  C1  BNZ d   1       0.529  -0.890  -0.156  0.00  0.00     0.000 A 
ATOM      2  C2  BNZ d   1       0.950   0.393  -0.381  0.00  0.00     0.000 A 
ATOM      3  C3  BNZ d   1       1.697   0.701  -1.484  0.00  0.00     0.000 A 
ATOM      4  C4  BNZ d   1       2.055  -0.280  -2.338  0.00  0.00     0.000 A 
ATOM      5  C5  BNZ d   1       1.646  -1.580  -2.120  0.00  0.00     0.000 A 
ATOM      6  C6  BNZ d   1       0.861  -1.880  -1.029  0.00  0.00     0.000 A 
ENDROOT
TORSDOF 0
ENDMDL
