MODEL 1
REMARK minimizedAffinity -2.49948096
REMARK minimizedRMSD -1
REMARK  0 active torsions:
REMARK  status: ('A' for Active; 'I' for Inactive)
ROOT
ATOM      1  C1  BNZ d   1      -1.132   0.296   1.819  0.00  0.00     0.000 A 
ATOM      2  C2  BNZ d   1      -2.358   0.547   2.375  0.00  0.00     0.000 A 
ATOM      3  C3  BNZ d   1      -3.508   0.210   1.716  0.00  0.00     0.000 A 
ATOM      4  C4  BNZ d   1      -3.430  -0.340   0.487  0.00  0.00     0.000 A 
ATOM      5  C5  BNZ d   1      -2.201  -0.591  -0.090  0.00  0.00     0.000 A 
ATOM      6  C6  BNZ d   1      -1.046  -0.286   0.592  0.00  0.00     0.000 A 
ENDROOT
TORSDOF 0
ENDMDL
