MODEL 1
REMARK minimizedAffinity -3.76397729
REMARK minimizedRMSD -1
REMARK  0 active torsions:
REMARK  status: ('A' for Active; 'I' for Inactive)
ROOT
ATOM      1  C1  BNZ d   1      -0.143  -0.687  -0.679  0.00  0.00     0.000 A 
ATOM      2  C2  BNZ d   1       0.692  -0.887  -1.746  0.00  0.00     0.000 A 
ATOM      3  C3  BNZ d   1       1.775  -0.079  -1.949  0.00  0.00     0.000 A 
ATOM      4  C4  BNZ d   1       1.999   0.952  -1.109  0.00  0.00     0.000 A 
ATOM      5  C5  BNZ d   1       1.161   1.173  -0.034  0.00  0.00     0.000 A 
ATOM      6  C6  BNZ d   1       0.094   0.334   0.189  0.00  0.00     0.000 A 
ENDROOT
TORSDOF 0
ENDMDL
