MODEL 1
REMARK minimizedAffinity -3.82132339
REMARK minimizedRMSD -1
REMARK  0 active torsions:
REMARK  status: ('A' for Active; 'I' for Inactive)
ROOT
ATOM      1  C1  BNZ d   1       1.109  -0.168  -1.364  0.00  0.00     0.000 A 
ATOM      2  C2  BNZ d   1       0.717  -1.368  -0.835  0.00  0.00     0.000 A 
ATOM      3  C3  BNZ d   1       1.098  -2.546  -1.414  0.00  0.00     0.000 A 
ATOM      4  C4  BNZ d   1       1.837  -2.522  -2.542  0.00  0.00     0.000 A 
ATOM      5  C5  BNZ d   1       2.233  -1.320  -3.093  0.00  0.00     0.000 A 
ATOM      6  C6  BNZ d   1       1.879  -0.136  -2.485  0.00  0.00     0.000 A 
ENDROOT
TORSDOF 0
ENDMDL
