MODEL 1
REMARK minimizedAffinity -4.99296999
REMARK minimizedRMSD -1
REMARK  0 active torsions:
REMARK  status: ('A' for Active; 'I' for Inactive)
ROOT
ATOM      1  C1  BNZ d   1       1.022  -1.837  -1.633  0.00  0.00     0.000 A 
ATOM      2  C2  BNZ d   1       0.731  -0.524  -1.373  0.00  0.00     0.000 A 
ATOM      3  C3  BNZ d   1       1.668   0.452  -1.570  0.00  0.00     0.000 A 
ATOM      4  C4  BNZ d   1       2.904   0.111  -1.987  0.00  0.00     0.000 A 
ATOM      5  C5  BNZ d   1       3.215  -1.210  -2.245  0.00  0.00     0.000 A 
ATOM      6  C6  BNZ d   1       2.258  -2.185  -2.083  0.00  0.00     0.000 A 
ENDROOT
TORSDOF 0
ENDMDL
