MODEL 1
REMARK minimizedAffinity -4.0354228
REMARK minimizedRMSD -1
REMARK  0 active torsions:
REMARK  status: ('A' for Active; 'I' for Inactive)
ROOT
ATOM      1  C1  BNZ d   1       1.141   0.828   0.626  0.00  0.00     0.000 A 
ATOM      2  C2  BNZ d   1       1.440   0.920  -0.708  0.00  0.00     0.000 A 
ATOM      3  C3  BNZ d   1       1.082  -0.074  -1.575  0.00  0.00     0.000 A 
ATOM      4  C4  BNZ d   1       0.461  -1.174  -1.103  0.00  0.00     0.000 A 
ATOM      5  C5  BNZ d   1       0.161  -1.285   0.240  0.00  0.00     0.000 A 
ATOM      6  C6  BNZ d   1       0.488  -0.266   1.104  0.00  0.00     0.000 A 
ENDROOT
TORSDOF 0
ENDMDL
