MODEL 1
REMARK minimizedAffinity -3.94205213
REMARK minimizedRMSD -1
REMARK  0 active torsions:
REMARK  status: ('A' for Active; 'I' for Inactive)
ROOT
ATOM      1  C1  BNZ d   1       0.043  -0.010   0.848  0.00  0.00     0.000 A 
ATOM      2  C2  BNZ d   1       0.527   0.854  -0.098  0.00  0.00     0.000 A 
ATOM      3  C3  BNZ d   1       0.865   0.408  -1.345  0.00  0.00     0.000 A 
ATOM      4  C4  BNZ d   1       0.757  -0.905  -1.632  0.00  0.00     0.000 A 
ATOM      5  C5  BNZ d   1       0.280  -1.790  -0.686  0.00  0.00     0.000 A 
ATOM      6  C6  BNZ d   1      -0.096  -1.332   0.556  0.00  0.00     0.000 A 
ENDROOT
TORSDOF 0
ENDMDL
