MODEL 1
REMARK minimizedAffinity -2.93387985
REMARK minimizedRMSD -1
REMARK  0 active torsions:
REMARK  status: ('A' for Active; 'I' for Inactive)
ROOT
ATOM      1  C1  BNZ d   1       1.226   0.688  -1.411  0.00  0.00     0.000 A 
ATOM      2  C2  BNZ d   1       0.591  -0.028  -0.431  0.00  0.00     0.000 A 
ATOM      3  C3  BNZ d   1       0.049  -1.253  -0.699  0.00  0.00     0.000 A 
ATOM      4  C4  BNZ d   1       0.106  -1.744  -1.954  0.00  0.00     0.000 A 
ATOM      5  C5  BNZ d   1       0.735  -1.030  -2.955  0.00  0.00     0.000 A 
ATOM      6  C6  BNZ d   1       1.314   0.186  -2.673  0.00  0.00     0.000 A 
ENDROOT
TORSDOF 0
ENDMDL
