MODEL 1
REMARK minimizedAffinity -4.90903378
REMARK minimizedRMSD -1
REMARK  0 active torsions:
REMARK  status: ('A' for Active; 'I' for Inactive)
ROOT
ATOM      1  C1  BNZ d   1       0.750   0.371  -0.425  0.00  0.00     0.000 A 
ATOM      2  C2  BNZ d   1       1.580   0.701  -1.462  0.00  0.00     0.000 A 
ATOM      3  C3  BNZ d   1       1.966  -0.239  -2.376  0.00  0.00     0.000 A 
ATOM      4  C4  BNZ d   1       1.555  -1.515  -2.229  0.00  0.00     0.000 A 
ATOM      5  C5  BNZ d   1       0.725  -1.866  -1.182  0.00  0.00     0.000 A 
ATOM      6  C6  BNZ d   1       0.307  -0.908  -0.286  0.00  0.00     0.000 A 
ENDROOT
TORSDOF 0
ENDMDL
