MODEL 1
REMARK minimizedAffinity -2.37543893
REMARK minimizedRMSD -1
REMARK  0 active torsions:
REMARK  status: ('A' for Active; 'I' for Inactive)
ROOT
ATOM      1  C1  BNZ d   1       0.743   1.234  -0.377  0.00  0.00     0.000 A 
ATOM      2  C2  BNZ d   1       1.474   0.807  -1.454  0.00  0.00     0.000 A 
ATOM      3  C3  BNZ d   1       1.251  -0.422  -2.008  0.00  0.00     0.000 A 
ATOM      4  C4  BNZ d   1       0.327  -1.238  -1.461  0.00  0.00     0.000 A 
ATOM      5  C5  BNZ d   1      -0.411  -0.826  -0.369  0.00  0.00     0.000 A 
ATOM      6  C6  BNZ d   1      -0.211   0.428   0.162  0.00  0.00     0.000 A 
ENDROOT
TORSDOF 0
ENDMDL
