MODEL 1
REMARK minimizedAffinity -4.2432456
REMARK minimizedRMSD -1
REMARK  0 active torsions:
REMARK  status: ('A' for Active; 'I' for Inactive)
ROOT
ATOM      1  C1  BNZ d   1       0.340  -1.581  -0.829  0.00  0.00     0.000 A 
ATOM      2  C2  BNZ d   1      -0.114  -1.612   0.463  0.00  0.00     0.000 A 
ATOM      3  C3  BNZ d   1      -0.171  -0.470   1.212  0.00  0.00     0.000 A 
ATOM      4  C4  BNZ d   1       0.262   0.692   0.683  0.00  0.00     0.000 A 
ATOM      5  C5  BNZ d   1       0.731   0.738  -0.615  0.00  0.00     0.000 A 
ATOM      6  C6  BNZ d   1       0.750  -0.406  -1.379  0.00  0.00     0.000 A 
ENDROOT
TORSDOF 0
ENDMDL
