MODEL 1
REMARK minimizedAffinity -4.39149094
REMARK minimizedRMSD -1
REMARK  0 active torsions:
REMARK  status: ('A' for Active; 'I' for Inactive)
ROOT
ATOM      1  C1  BNZ d   1      -0.071   0.063   1.009  0.00  0.00     0.000 A 
ATOM      2  C2  BNZ d   1       0.317   1.007   0.096  0.00  0.00     0.000 A 
ATOM      3  C3  BNZ d   1       0.748   0.642  -1.149  0.00  0.00     0.000 A 
ATOM      4  C4  BNZ d   1       0.829  -0.666  -1.465  0.00  0.00     0.000 A 
ATOM      5  C5  BNZ d   1       0.450  -1.631  -0.553  0.00  0.00     0.000 A 
ATOM      6  C6  BNZ d   1      -0.021  -1.258   0.685  0.00  0.00     0.000 A 
ENDROOT
TORSDOF 0
ENDMDL
