MODEL 1
REMARK minimizedAffinity -3.89410901
REMARK minimizedRMSD -1
REMARK  0 active torsions:
REMARK  status: ('A' for Active; 'I' for Inactive)
ROOT
ATOM      1  C1  BNZ d   1       0.804  -1.136  -1.879  0.00  0.00     0.000 A 
ATOM      2  C2  BNZ d   1       0.043  -0.984  -0.750  0.00  0.00     0.000 A 
ATOM      3  C3  BNZ d   1       0.179   0.122   0.041  0.00  0.00     0.000 A 
ATOM      4  C4  BNZ d   1       1.102   1.053  -0.274  0.00  0.00     0.000 A 
ATOM      5  C5  BNZ d   1       1.882   0.910  -1.404  0.00  0.00     0.000 A 
ATOM      6  C6  BNZ d   1       1.716  -0.186  -2.220  0.00  0.00     0.000 A 
ENDROOT
TORSDOF 0
ENDMDL
