MODEL 1
REMARK minimizedAffinity -3.38468599
REMARK minimizedRMSD -1
REMARK  0 active torsions:
REMARK  status: ('A' for Active; 'I' for Inactive)
ROOT
ATOM      1  C1  BNZ d   1       0.503  -2.196  -0.071  0.00  0.00     0.000 A 
ATOM      2  C2  BNZ d   1       0.119  -1.278   0.870  0.00  0.00     0.000 A 
ATOM      3  C3  BNZ d   1       0.009   0.047   0.552  0.00  0.00     0.000 A 
ATOM      4  C4  BNZ d   1       0.320   0.457  -0.694  0.00  0.00     0.000 A 
ATOM      5  C5  BNZ d   1       0.718  -0.454  -1.652  0.00  0.00     0.000 A 
ATOM      6  C6  BNZ d   1       0.791  -1.792  -1.338  0.00  0.00     0.000 A 
ENDROOT
TORSDOF 0
ENDMDL
