MODEL 1
REMARK minimizedAffinity 3.70074153
REMARK minimizedRMSD -1
REMARK  1 active torsions:
REMARK  status: ('A' for Active; 'I' for Inactive)
REMARK    1  A    between atoms: C1_2  and  C2_3 
ROOT
ATOM      1  C2  UNL d   1      -4.825   0.170  -5.004  0.00  0.00    -0.081 A 
ATOM      2  C3  UNL d   1      -4.788  -0.698  -3.907  0.00  0.00     0.006 A 
ATOM      3  C4  UNL d   1      -3.672  -1.507  -3.681  0.00  0.00     0.002 A 
ATOM      4  C5  UNL d   1      -2.571  -1.455  -4.543  0.00  0.00    -0.080 A 
ATOM      5  C6  UNL d   1      -1.354  -2.296  -4.295  0.00  0.00     0.076 C 
ATOM      6  C7  UNL d   1      -2.615  -0.600  -5.650  0.00  0.00     0.002 A 
ATOM      7  C8  UNL d   1      -3.731   0.208  -5.876  0.00  0.00     0.006 A 
ENDROOT
BRANCH   1   8
ATOM      8  C1  UNL d   1      -6.000   1.091  -5.214  0.00  0.00     0.054 C 
ATOM      9  C   UNL d   1      -5.544   2.492  -5.595  0.00  0.00     0.018 C 
ENDBRANCH   1   8
TORSDOF 1
ENDMDL
