MODEL 1
REMARK minimizedAffinity 8.92148304
REMARK minimizedRMSD -1
REMARK  1 active torsions:
REMARK  status: ('A' for Active; 'I' for Inactive)
REMARK    1  A    between atoms: C1_2  and  C2_3 
ROOT
ATOM      1  C2  UNL d   1       4.848  -4.726   1.096  0.00  0.00    -0.081 A 
ATOM      2  C3  UNL d   1       4.442  -4.560   2.425  0.00  0.00     0.006 A 
ATOM      3  C4  UNL d   1       3.337  -3.763   2.734  0.00  0.00     0.002 A 
ATOM      4  C5  UNL d   1       2.616  -3.125   1.719  0.00  0.00    -0.080 A 
ATOM      5  C6  UNL d   1       1.410  -2.291   2.034  0.00  0.00     0.076 C 
ATOM      6  C7  UNL d   1       3.032  -3.277   0.392  0.00  0.00     0.002 A 
ATOM      7  C8  UNL d   1       4.137  -4.073   0.083  0.00  0.00     0.006 A 
ENDROOT
BRANCH   1   8
ATOM      8  C1  UNL d   1       6.000  -5.637   0.754  0.00  0.00     0.054 C 
ATOM      9  C   UNL d   1       6.000  -5.998  -0.724  0.00  0.00     0.018 C 
ENDBRANCH   1   8
TORSDOF 1
ENDMDL
