MODEL 1
REMARK minimizedAffinity 3.88817692
REMARK minimizedRMSD -1
REMARK  1 active torsions:
REMARK  status: ('A' for Active; 'I' for Inactive)
REMARK    1  A    between atoms: C1_2  and  C2_3 
ROOT
ATOM      1  C2  UNL d   1      -2.758  -1.162  -4.885  0.00  0.00    -0.081 A 
ATOM      2  C3  UNL d   1      -2.975  -0.306  -5.972  0.00  0.00     0.006 A 
ATOM      3  C4  UNL d   1      -4.029   0.610  -5.952  0.00  0.00     0.002 A 
ATOM      4  C5  UNL d   1      -4.879   0.691  -4.844  0.00  0.00    -0.080 A 
ATOM      5  C6  UNL d   1      -5.996   1.690  -4.797  0.00  0.00     0.076 C 
ATOM      6  C7  UNL d   1      -4.673  -0.176  -3.765  0.00  0.00     0.002 A 
ATOM      7  C8  UNL d   1      -3.619  -1.093  -3.785  0.00  0.00     0.006 A 
ENDROOT
BRANCH   1   8
ATOM      8  C1  UNL d   1      -1.582  -2.106  -4.876  0.00  0.00     0.054 C 
ATOM      9  C   UNL d   1      -1.686  -3.130  -5.997  0.00  0.00     0.018 C 
ENDBRANCH   1   8
TORSDOF 1
ENDMDL
