MODEL 1
REMARK minimizedAffinity -0.0552041903
REMARK minimizedRMSD -1
REMARK  1 active torsions:
REMARK  status: ('A' for Active; 'I' for Inactive)
REMARK    1  A    between atoms: C1_2  and  C2_3 
ROOT
ATOM      1  C2  UNL d   1      -2.938   1.832  -3.442  0.00  0.00    -0.081 A 
ATOM      2  C3  UNL d   1      -3.486   1.542  -4.698  0.00  0.00     0.006 A 
ATOM      3  C4  UNL d   1      -3.949   0.257  -4.988  0.00  0.00     0.002 A 
ATOM      4  C5  UNL d   1      -3.880  -0.757  -4.027  0.00  0.00    -0.080 A 
ATOM      5  C6  UNL d   1      -4.402  -2.133  -4.316  0.00  0.00     0.076 C 
ATOM      6  C7  UNL d   1      -3.317  -0.472  -2.778  0.00  0.00     0.002 A 
ATOM      7  C8  UNL d   1      -2.852   0.813  -2.488  0.00  0.00     0.006 A 
ENDROOT
BRANCH   1   8
ATOM      8  C1  UNL d   1      -2.496   3.233  -3.104  0.00  0.00     0.054 C 
ATOM      9  C   UNL d   1      -3.601   4.243  -3.378  0.00  0.00     0.018 C 
ENDBRANCH   1   8
TORSDOF 1
ENDMDL
