MODEL 1
REMARK minimizedAffinity 3.37994051
REMARK minimizedRMSD -1
REMARK  1 active torsions:
REMARK  status: ('A' for Active; 'I' for Inactive)
REMARK    1  A    between atoms: C1_2  and  C2_3 
ROOT
ATOM      1  C2  UNL d   1       3.622  -3.855   2.096  0.00  0.00    -0.081 A 
ATOM      2  C3  UNL d   1       4.450  -4.966   2.300  0.00  0.00     0.006 A 
ATOM      3  C4  UNL d   1       5.002  -5.215   3.559  0.00  0.00     0.002 A 
ATOM      4  C5  UNL d   1       4.728  -4.364   4.635  0.00  0.00    -0.080 A 
ATOM      5  C6  UNL d   1       5.290  -4.638   5.999  0.00  0.00     0.076 C 
ATOM      6  C7  UNL d   1       3.915  -3.245   4.427  0.00  0.00     0.002 A 
ATOM      7  C8  UNL d   1       3.364  -2.995   3.168  0.00  0.00     0.006 A 
ENDROOT
BRANCH   1   8
ATOM      8  C1  UNL d   1       2.973  -3.619   0.755  0.00  0.00     0.054 C 
ATOM      9  C   UNL d   1       2.206  -2.305   0.736  0.00  0.00     0.018 C 
ENDBRANCH   1   8
TORSDOF 1
ENDMDL
