MODEL 1
REMARK minimizedAffinity 0.662172914
REMARK minimizedRMSD -1
REMARK  1 active torsions:
REMARK  status: ('A' for Active; 'I' for Inactive)
REMARK    1  A    between atoms: C1_2  and  C2_3 
ROOT
ATOM      1  C2  UNL d   1      -4.799   0.588  -4.566  0.00  0.00    -0.081 A 
ATOM      2  C3  UNL d   1      -3.956   0.708  -5.677  0.00  0.00     0.006 A 
ATOM      3  C4  UNL d   1      -2.880  -0.167  -5.848  0.00  0.00     0.002 A 
ATOM      4  C5  UNL d   1      -2.635  -1.181  -4.915  0.00  0.00    -0.080 A 
ATOM      5  C6  UNL d   1      -1.502  -2.146  -5.103  0.00  0.00     0.076 C 
ATOM      6  C7  UNL d   1      -3.466  -1.290  -3.796  0.00  0.00     0.002 A 
ATOM      7  C8  UNL d   1      -4.541  -0.415  -3.624  0.00  0.00     0.006 A 
ENDROOT
BRANCH   1   8
ATOM      8  C1  UNL d   1      -5.998   1.488  -4.412  0.00  0.00     0.054 C 
ATOM      9  C   UNL d   1      -5.805   2.799  -5.163  0.00  0.00     0.018 C 
ENDBRANCH   1   8
TORSDOF 1
ENDMDL
