MODEL 1
REMARK minimizedAffinity 4.93754673
REMARK minimizedRMSD -1
REMARK  1 active torsions:
REMARK  status: ('A' for Active; 'I' for Inactive)
REMARK    1  A    between atoms: C1_2  and  C2_3 
ROOT
ATOM      1  C2  UNL d   1      -3.502  -0.327  -4.488  0.00  0.00    -0.081 A 
ATOM      2  C3  UNL d   1      -4.897  -0.451  -4.468  0.00  0.00     0.006 A 
ATOM      3  C4  UNL d   1      -5.709   0.616  -4.859  0.00  0.00     0.002 A 
ATOM      4  C5  UNL d   1      -5.140   1.822  -5.284  0.00  0.00    -0.080 A 
ATOM      5  C6  UNL d   1      -6.000   2.965  -5.735  0.00  0.00     0.076 C 
ATOM      6  C7  UNL d   1      -3.747   1.952  -5.287  0.00  0.00     0.002 A 
ATOM      7  C8  UNL d   1      -2.935   0.885  -4.896  0.00  0.00     0.006 A 
ENDROOT
BRANCH   1   8
ATOM      8  C1  UNL d   1      -2.624  -1.498  -4.129  0.00  0.00     0.054 C 
ATOM      9  C   UNL d   1      -2.267  -1.489  -2.650  0.00  0.00     0.018 C 
ENDBRANCH   1   8
TORSDOF 1
ENDMDL
