MODEL 1
REMARK minimizedAffinity -2.71634102
REMARK minimizedRMSD -1
REMARK  0 active torsions:
REMARK  status: ('A' for Active; 'I' for Inactive)
ROOT
ATOM      1  C   UNL d   1       3.037  -1.947   0.922  0.00  0.00    -0.002 A 
ATOM      2  C1  UNL d   1       2.871  -0.991   1.915  0.00  0.00     0.010 A 
ATOM      3  C2  UNL d   1       1.772  -0.131   1.896  0.00  0.00     0.041 A 
ATOM      4  C3  UNL d   1       0.832  -0.249   0.853  0.00  0.00    -0.075 A 
ATOM      5  S   UNL d   1      -0.592   0.696   0.625  0.00  0.00     0.015 SA
ATOM      6  C4  UNL d   1      -1.014  -0.147  -0.795  0.00  0.00     0.022 A 
ATOM      7  C5  UNL d   1      -0.101  -1.128  -1.103  0.00  0.00     0.026 A 
ATOM      8  C6  UNL d   1       0.977  -1.204  -0.158  0.00  0.00    -0.082 A 
ATOM      9  C7  UNL d   1       2.103  -2.061  -0.111  0.00  0.00     0.045 A 
ENDROOT
TORSDOF 0
ENDMDL
