MODEL 1
REMARK minimizedAffinity 0.340731919
REMARK minimizedRMSD -1
REMARK  0 active torsions:
REMARK  status: ('A' for Active; 'I' for Inactive)
ROOT
ATOM      1  C   UNL d   1      -1.267   1.238  -0.964  0.00  0.00    -0.002 A 
ATOM      2  C1  UNL d   1      -1.308  -0.117  -0.667  0.00  0.00     0.010 A 
ATOM      3  C2  UNL d   1      -0.270  -0.719   0.047  0.00  0.00     0.041 A 
ATOM      4  C3  UNL d   1       0.820   0.071   0.462  0.00  0.00    -0.075 A 
ATOM      5  S   UNL d   1       2.204  -0.451   1.348  0.00  0.00     0.015 SA
ATOM      6  C4  UNL d   1       2.882   1.112   1.354  0.00  0.00     0.022 A 
ATOM      7  C5  UNL d   1       2.086   2.022   0.700  0.00  0.00     0.026 A 
ATOM      8  C6  UNL d   1       0.884   1.437   0.176  0.00  0.00    -0.082 A 
ATOM      9  C7  UNL d   1      -0.184   2.019  -0.550  0.00  0.00     0.045 A 
ENDROOT
TORSDOF 0
ENDMDL
