MODEL 1
REMARK minimizedAffinity 10.6734676
REMARK minimizedRMSD -1
REMARK  0 active torsions:
REMARK  status: ('A' for Active; 'I' for Inactive)
ROOT
ATOM      1  O1  BZF d   1      -2.422   1.872  -2.637  0.00  0.00    -0.204 OA
ATOM      2  C2  BZF d   1      -1.440   2.670  -3.192  0.00  0.00     0.174 A 
ATOM      3  C3  BZF d   1      -1.690   3.973  -2.949  0.00  0.00    -0.012 A 
ATOM      4  C3A BZF d   1      -2.854   3.985  -2.118  0.00  0.00    -0.107 A 
ATOM      5  C4  BZF d   1      -3.580   4.983  -1.532  0.00  0.00     0.055 A 
ATOM      6  C5  BZF d   1      -4.706   4.663  -0.842  0.00  0.00    -0.016 A 
ATOM      7  C6  BZF d   1      -5.138   3.358  -0.721  0.00  0.00     0.022 A 
ATOM      8  C7  BZF d   1      -4.448   2.334  -1.280  0.00  0.00     0.029 A 
ATOM      9  C7A BZF d   1      -3.292   2.651  -1.950  0.00  0.00     0.058 A 
ENDROOT
TORSDOF 0
ENDMDL
