MODEL 1
REMARK minimizedAffinity 15.1384592
REMARK minimizedRMSD -1
REMARK  0 active torsions:
REMARK  status: ('A' for Active; 'I' for Inactive)
ROOT
ATOM      1  O1  BZF d   1       0.953   0.033   5.135  0.00  0.00    -0.204 OA
ATOM      2  C2  BZF d   1      -0.240  -0.655   5.247  0.00  0.00     0.174 A 
ATOM      3  C3  BZF d   1      -0.431  -1.459   4.181  0.00  0.00    -0.012 A 
ATOM      4  C3A BZF d   1       0.758  -1.330   3.395  0.00  0.00    -0.107 A 
ATOM      5  C4  BZF d   1       1.174  -1.895   2.223  0.00  0.00     0.055 A 
ATOM      6  C5  BZF d   1       2.359  -1.502   1.685  0.00  0.00    -0.016 A 
ATOM      7  C6  BZF d   1       3.148  -0.545   2.288  0.00  0.00     0.022 A 
ATOM      8  C7  BZF d   1       2.780   0.039   3.455  0.00  0.00     0.029 A 
ATOM      9  C7A BZF d   1       1.599  -0.380   4.018  0.00  0.00     0.058 A 
ENDROOT
TORSDOF 0
ENDMDL
