MODEL 1
REMARK minimizedAffinity 1.93785918
REMARK minimizedRMSD -1
REMARK  0 active torsions:
REMARK  status: ('A' for Active; 'I' for Inactive)
ROOT
ATOM      1  O1  BZF d   1      -0.050  -0.064   4.930  0.00  0.00    -0.204 OA
ATOM      2  C2  BZF d   1      -0.943  -0.340   5.947  0.00  0.00     0.174 A 
ATOM      3  C3  BZF d   1      -1.684  -1.427   5.650  0.00  0.00    -0.012 A 
ATOM      4  C3A BZF d   1      -1.162  -1.912   4.409  0.00  0.00    -0.107 A 
ATOM      5  C4  BZF d   1      -1.473  -2.975   3.611  0.00  0.00     0.055 A 
ATOM      6  C5  BZF d   1      -0.821  -3.126   2.428  0.00  0.00    -0.016 A 
ATOM      7  C6  BZF d   1       0.143  -2.232   2.011  0.00  0.00     0.022 A 
ATOM      8  C7  BZF d   1       0.489  -1.164   2.771  0.00  0.00     0.029 A 
ATOM      9  C7A BZF d   1      -0.145  -1.027   3.982  0.00  0.00     0.058 A 
ENDROOT
TORSDOF 0
ENDMDL
