MODEL 1
REMARK minimizedAffinity 11.091794
REMARK minimizedRMSD -1
REMARK  0 active torsions:
REMARK  status: ('A' for Active; 'I' for Inactive)
ROOT
ATOM      1  O1  BZF d   1      -3.399  -5.577  -0.022  0.00  0.00    -0.204 OA
ATOM      2  C2  BZF d   1      -4.589  -5.757  -0.700  0.00  0.00     0.174 A 
ATOM      3  C3  BZF d   1      -5.563  -4.992  -0.168  0.00  0.00    -0.012 A 
ATOM      4  C3A BZF d   1      -4.921  -4.220   0.852  0.00  0.00    -0.107 A 
ATOM      5  C4  BZF d   1      -5.361  -3.266   1.724  0.00  0.00     0.055 A 
ATOM      6  C5  BZF d   1      -4.495  -2.761   2.642  0.00  0.00    -0.016 A 
ATOM      7  C6  BZF d   1      -3.187  -3.192   2.720  0.00  0.00     0.022 A 
ATOM      8  C7  BZF d   1      -2.704  -4.133   1.873  0.00  0.00     0.029 A 
ATOM      9  C7A BZF d   1      -3.567  -4.621   0.923  0.00  0.00     0.058 A 
ENDROOT
TORSDOF 0
ENDMDL
