MODEL 1
REMARK minimizedAffinity 5.23968935
REMARK minimizedRMSD -1
REMARK  0 active torsions:
REMARK  status: ('A' for Active; 'I' for Inactive)
ROOT
ATOM      1  O1  BZF d   1      -1.718   2.136  -3.097  0.00  0.00    -0.204 OA
ATOM      2  C2  BZF d   1      -1.883   3.170  -3.999  0.00  0.00     0.174 A 
ATOM      3  C3  BZF d   1      -1.037   4.183  -3.726  0.00  0.00    -0.012 A 
ATOM      4  C3A BZF d   1      -0.232   3.719  -2.638  0.00  0.00    -0.107 A 
ATOM      5  C4  BZF d   1       0.800   4.268  -1.932  0.00  0.00     0.055 A 
ATOM      6  C5  BZF d   1       1.321   3.581  -0.881  0.00  0.00    -0.016 A 
ATOM      7  C6  BZF d   1       0.832   2.347  -0.507  0.00  0.00     0.022 A 
ATOM      8  C7  BZF d   1      -0.186   1.759  -1.181  0.00  0.00     0.029 A 
ATOM      9  C7A BZF d   1      -0.693   2.436  -2.263  0.00  0.00     0.058 A 
ENDROOT
TORSDOF 0
ENDMDL
