MODEL 1
REMARK minimizedAffinity 15.7084427
REMARK minimizedRMSD -1
REMARK  0 active torsions:
REMARK  status: ('A' for Active; 'I' for Inactive)
ROOT
ATOM      1  O1  BZF d   1       0.358   3.862  -1.855  0.00  0.00    -0.204 OA
ATOM      2  C2  BZF d   1       0.659   3.032  -0.792  0.00  0.00     0.174 A 
ATOM      3  C3  BZF d   1      -0.335   2.146  -0.580  0.00  0.00    -0.012 A 
ATOM      4  C3A BZF d   1      -1.278   2.380  -1.631  0.00  0.00    -0.107 A 
ATOM      5  C4  BZF d   1      -2.469   1.803  -1.968  0.00  0.00     0.055 A 
ATOM      6  C5  BZF d   1      -3.178   2.314  -3.009  0.00  0.00    -0.016 A 
ATOM      7  C6  BZF d   1      -2.729   3.401  -3.730  0.00  0.00     0.022 A 
ATOM      8  C7  BZF d   1      -1.551   4.003  -3.435  0.00  0.00     0.029 A 
ATOM      9  C7A BZF d   1      -0.816   3.469  -2.405  0.00  0.00     0.058 A 
ENDROOT
TORSDOF 0
ENDMDL
