MODEL 1
REMARK minimizedAffinity 5.76672649
REMARK minimizedRMSD -1
REMARK  0 active torsions:
REMARK  status: ('A' for Active; 'I' for Inactive)
ROOT
ATOM      1  O1  BZF d   1      -1.506   2.744  -3.439  0.00  0.00    -0.204 OA
ATOM      2  C2  BZF d   1      -1.831   3.973  -3.980  0.00  0.00     0.174 A 
ATOM      3  C3  BZF d   1      -1.279   4.973  -3.263  0.00  0.00    -0.012 A 
ATOM      4  C3A BZF d   1      -0.489   4.325  -2.261  0.00  0.00    -0.107 A 
ATOM      5  C4  BZF d   1       0.312   4.785  -1.255  0.00  0.00     0.055 A 
ATOM      6  C5  BZF d   1       0.884   3.891  -0.406  0.00  0.00    -0.016 A 
ATOM      7  C6  BZF d   1       0.673   2.534  -0.530  0.00  0.00     0.022 A 
ATOM      8  C7  BZF d   1      -0.109   2.030  -1.515  0.00  0.00     0.029 A 
ATOM      9  C7A BZF d   1      -0.662   2.928  -2.395  0.00  0.00     0.058 A 
ENDROOT
TORSDOF 0
ENDMDL
