MODEL 1
REMARK minimizedAffinity 10.3733349
REMARK minimizedRMSD -1
REMARK  0 active torsions:
REMARK  status: ('A' for Active; 'I' for Inactive)
ROOT
ATOM      1  O1  BZF d   1       1.369   4.836   0.367  0.00  0.00    -0.204 OA
ATOM      2  C2  BZF d   1       1.323   6.000  -0.376  0.00  0.00     0.174 A 
ATOM      3  C3  BZF d   1       0.683   5.796  -1.545  0.00  0.00    -0.012 A 
ATOM      4  C3A BZF d   1       0.224   4.442  -1.492  0.00  0.00    -0.107 A 
ATOM      5  C4  BZF d   1      -0.491   3.658  -2.353  0.00  0.00     0.055 A 
ATOM      6  C5  BZF d   1      -0.709   2.356  -2.034  0.00  0.00    -0.016 A 
ATOM      7  C6  BZF d   1      -0.223   1.803  -0.867  0.00  0.00     0.022 A 
ATOM      8  C7  BZF d   1       0.487   2.542   0.020  0.00  0.00     0.029 A 
ATOM      9  C7A BZF d   1       0.681   3.867  -0.284  0.00  0.00     0.058 A 
ENDROOT
TORSDOF 0
ENDMDL
