MODEL 1
REMARK minimizedAffinity 12.7345476
REMARK minimizedRMSD -1
REMARK  0 active torsions:
REMARK  status: ('A' for Active; 'I' for Inactive)
ROOT
ATOM      1  O1  BZF d   1      -1.805  -3.193   1.173  0.00  0.00    -0.204 OA
ATOM      2  C2  BZF d   1      -2.947  -3.282   1.944  0.00  0.00     0.174 A 
ATOM      3  C3  BZF d   1      -2.843  -2.509   3.044  0.00  0.00    -0.012 A 
ATOM      4  C3A BZF d   1      -1.593  -1.826   2.908  0.00  0.00    -0.107 A 
ATOM      5  C4  BZF d   1      -0.937  -0.907   3.676  0.00  0.00     0.055 A 
ATOM      6  C5  BZF d   1       0.302  -0.495   3.297  0.00  0.00    -0.016 A 
ATOM      7  C6  BZF d   1       0.915  -0.984   2.163  0.00  0.00     0.022 A 
ATOM      8  C7  BZF d   1       0.301  -1.893   1.367  0.00  0.00     0.029 A 
ATOM      9  C7A BZF d   1      -0.964  -2.287   1.728  0.00  0.00     0.058 A 
ENDROOT
TORSDOF 0
ENDMDL
