MODEL 1
REMARK minimizedAffinity 10.9394217
REMARK minimizedRMSD -1
REMARK  0 active torsions:
REMARK  status: ('A' for Active; 'I' for Inactive)
ROOT
ATOM      1  O1  BZF d   1       3.783  -2.348  -4.568  0.00  0.00    -0.204 OA
ATOM      2  C2  BZF d   1       4.956  -1.761  -4.136  0.00  0.00     0.174 A 
ATOM      3  C3  BZF d   1       5.996  -2.607  -4.283  0.00  0.00    -0.012 A 
ATOM      4  C3A BZF d   1       5.454  -3.762  -4.929  0.00  0.00    -0.107 A 
ATOM      5  C4  BZF d   1       5.996  -4.941  -5.356  0.00  0.00     0.055 A 
ATOM      6  C5  BZF d   1       5.179  -5.891  -5.882  0.00  0.00    -0.016 A 
ATOM      7  C6  BZF d   1       3.817  -5.700  -5.990  0.00  0.00     0.022 A 
ATOM      8  C7  BZF d   1       3.234  -4.545  -5.584  0.00  0.00     0.029 A 
ATOM      9  C7A BZF d   1       4.061  -3.570  -5.083  0.00  0.00     0.058 A 
ENDROOT
TORSDOF 0
ENDMDL
