MODEL 1
REMARK minimizedAffinity 10.5398245
REMARK minimizedRMSD -1
REMARK  0 active torsions:
REMARK  status: ('A' for Active; 'I' for Inactive)
ROOT
ATOM      1  O1  BZF d   1       0.604  -0.424   3.049  0.00  0.00    -0.204 OA
ATOM      2  C2  BZF d   1      -0.418  -1.228   3.517  0.00  0.00     0.174 A 
ATOM      3  C3  BZF d   1      -0.369  -2.447   2.944  0.00  0.00    -0.012 A 
ATOM      4  C3A BZF d   1       0.808  -2.434   2.131  0.00  0.00    -0.107 A 
ATOM      5  C4  BZF d   1       1.404  -3.362   1.326  0.00  0.00     0.055 A 
ATOM      6  C5  BZF d   1       2.506  -3.009   0.613  0.00  0.00    -0.016 A 
ATOM      7  C6  BZF d   1       3.035  -1.736   0.678  0.00  0.00     0.022 A 
ATOM      8  C7  BZF d   1       2.482  -0.783   1.467  0.00  0.00     0.029 A 
ATOM      9  C7A BZF d   1       1.388  -1.147   2.213  0.00  0.00     0.058 A 
ENDROOT
TORSDOF 0
ENDMDL
