MODEL 1
REMARK minimizedAffinity 15.6723814
REMARK minimizedRMSD -1
REMARK  0 active torsions:
REMARK  status: ('A' for Active; 'I' for Inactive)
ROOT
ATOM      1  O1  BZF d   1      -1.529  -2.996   1.537  0.00  0.00    -0.204 OA
ATOM      2  C2  BZF d   1      -2.705  -3.161   2.244  0.00  0.00     0.174 A 
ATOM      3  C3  BZF d   1      -2.676  -2.453   3.392  0.00  0.00    -0.012 A 
ATOM      4  C3A BZF d   1      -1.441  -1.733   3.359  0.00  0.00    -0.107 A 
ATOM      5  C4  BZF d   1      -0.848  -0.846   4.212  0.00  0.00     0.055 A 
ATOM      6  C5  BZF d   1       0.395  -0.381   3.922  0.00  0.00    -0.016 A 
ATOM      7  C6  BZF d   1       1.076  -0.784   2.792  0.00  0.00     0.022 A 
ATOM      8  C7  BZF d   1       0.527  -1.659   1.914  0.00  0.00     0.029 A 
ATOM      9  C7A BZF d   1      -0.742  -2.105   2.187  0.00  0.00     0.058 A 
ENDROOT
TORSDOF 0
ENDMDL
