MODEL 1
REMARK minimizedAffinity 17.2582588
REMARK minimizedRMSD -1
REMARK  0 active torsions:
REMARK  status: ('A' for Active; 'I' for Inactive)
ROOT
ATOM      1  O1  BZF d   1      -0.996  -0.218   5.189  0.00  0.00    -0.204 OA
ATOM      2  C2  BZF d   1      -1.976  -0.756   6.000  0.00  0.00     0.174 A 
ATOM      3  C3  BZF d   1      -2.263  -2.021   5.628  0.00  0.00    -0.012 A 
ATOM      4  C3A BZF d   1      -1.343  -2.321   4.573  0.00  0.00    -0.107 A 
ATOM      5  C4  BZF d   1      -1.123  -3.429   3.807  0.00  0.00     0.055 A 
ATOM      6  C5  BZF d   1      -0.198  -3.372   2.813  0.00  0.00    -0.016 A 
ATOM      7  C6  BZF d   1       0.519  -2.222   2.555  0.00  0.00     0.022 A 
ATOM      8  C7  BZF d   1       0.339  -1.099   3.291  0.00  0.00     0.029 A 
ATOM      9  C7A BZF d   1      -0.571  -1.164   4.318  0.00  0.00     0.058 A 
ENDROOT
TORSDOF 0
ENDMDL
