MODEL 1
REMARK minimizedAffinity 5.41467619
REMARK minimizedRMSD -1
REMARK  0 active torsions:
REMARK  status: ('A' for Active; 'I' for Inactive)
ROOT
ATOM      1  O1  BZF d   1      -1.946  -2.151   4.659  0.00  0.00    -0.204 OA
ATOM      2  C2  BZF d   1      -2.356  -3.318   4.043  0.00  0.00     0.174 A 
ATOM      3  C3  BZF d   1      -1.583  -3.589   2.971  0.00  0.00    -0.012 A 
ATOM      4  C3A BZF d   1      -0.575  -2.574   2.968  0.00  0.00    -0.107 A 
ATOM      5  C4  BZF d   1       0.494  -2.316   2.157  0.00  0.00     0.055 A 
ATOM      6  C5  BZF d   1       1.240  -1.203   2.384  0.00  0.00    -0.016 A 
ATOM      7  C6  BZF d   1       0.944  -0.326   3.406  0.00  0.00     0.022 A 
ATOM      8  C7  BZF d   1      -0.103  -0.543   4.239  0.00  0.00     0.029 A 
ATOM      9  C7A BZF d   1      -0.839  -1.684   4.034  0.00  0.00     0.058 A 
ENDROOT
TORSDOF 0
ENDMDL
