MODEL 1
REMARK minimizedAffinity 12.5749655
REMARK minimizedRMSD -1
REMARK  0 active torsions:
REMARK  status: ('A' for Active; 'I' for Inactive)
ROOT
ATOM      1  O1  BZF d   1      -1.361  -2.830   1.518  0.00  0.00    -0.204 OA
ATOM      2  C2  BZF d   1      -2.412  -3.256   2.307  0.00  0.00     0.174 A 
ATOM      3  C3  BZF d   1      -2.272  -2.810   3.572  0.00  0.00    -0.012 A 
ATOM      4  C3A BZF d   1      -1.107  -1.981   3.553  0.00  0.00    -0.107 A 
ATOM      5  C4  BZF d   1      -0.464  -1.242   4.504  0.00  0.00     0.055 A 
ATOM      6  C5  BZF d   1       0.691  -0.605   4.178  0.00  0.00    -0.016 A 
ATOM      7  C6  BZF d   1       1.234  -0.689   2.912  0.00  0.00     0.022 A 
ATOM      8  C7  BZF d   1       0.630  -1.406   1.933  0.00  0.00     0.029 A 
ATOM      9  C7A BZF d   1      -0.555  -2.024   2.251  0.00  0.00     0.058 A 
ENDROOT
TORSDOF 0
ENDMDL
