MODEL 1
REMARK minimizedAffinity 22.1219463
REMARK minimizedRMSD -1
REMARK  0 active torsions:
REMARK  status: ('A' for Active; 'I' for Inactive)
ROOT
ATOM      1  O1  BZF d   1       0.345   0.004   4.411  0.00  0.00    -0.204 OA
ATOM      2  C2  BZF d   1       1.597   0.276   4.929  0.00  0.00     0.174 A 
ATOM      3  C3  BZF d   1       2.557   0.035   4.013  0.00  0.00    -0.012 A 
ATOM      4  C3A BZF d   1       1.855  -0.329   2.820  0.00  0.00    -0.107 A 
ATOM      5  C4  BZF d   1       2.259  -0.668   1.560  0.00  0.00     0.055 A 
ATOM      6  C5  BZF d   1       1.325  -1.040   0.645  0.00  0.00    -0.016 A 
ATOM      7  C6  BZF d   1      -0.018  -1.088   0.957  0.00  0.00     0.022 A 
ATOM      8  C7  BZF d   1      -0.467  -0.755   2.191  0.00  0.00     0.029 A 
ATOM      9  C7A BZF d   1       0.471  -0.348   3.109  0.00  0.00     0.058 A 
ENDROOT
TORSDOF 0
ENDMDL
