MODEL 1
REMARK minimizedAffinity 27.5368462
REMARK minimizedRMSD -1
REMARK  0 active torsions:
REMARK  status: ('A' for Active; 'I' for Inactive)
ROOT
ATOM      1  O1  BZF d   1       2.589   1.447   0.826  0.00  0.00    -0.204 OA
ATOM      2  C2  BZF d   1       1.572   2.252   0.352  0.00  0.00     0.174 A 
ATOM      3  C3  BZF d   1       0.400   1.584   0.338  0.00  0.00    -0.012 A 
ATOM      4  C3A BZF d   1       0.687   0.309   0.922  0.00  0.00    -0.107 A 
ATOM      5  C4  BZF d   1      -0.075  -0.790   1.198  0.00  0.00     0.055 A 
ATOM      6  C5  BZF d   1       0.526  -1.900   1.702  0.00  0.00    -0.016 A 
ATOM      7  C6  BZF d   1       1.884  -1.947   1.939  0.00  0.00     0.022 A 
ATOM      8  C7  BZF d   1       2.680  -0.879   1.686  0.00  0.00     0.029 A 
ATOM      9  C7A BZF d   1       2.071   0.255   1.206  0.00  0.00     0.058 A 
ENDROOT
TORSDOF 0
ENDMDL
