MODEL 1
REMARK minimizedAffinity 24.1483288
REMARK minimizedRMSD -1
REMARK  0 active torsions:
REMARK  status: ('A' for Active; 'I' for Inactive)
ROOT
ATOM      1  O1  BZF d   1       0.687   4.495  -0.317  0.00  0.00    -0.204 OA
ATOM      2  C2  BZF d   1       0.837   3.172   0.054  0.00  0.00     0.174 A 
ATOM      3  C3  BZF d   1       0.226   2.356  -0.828  0.00  0.00    -0.012 A 
ATOM      4  C3A BZF d   1      -0.262   3.217  -1.862  0.00  0.00    -0.107 A 
ATOM      5  C4  BZF d   1      -0.943   2.995  -3.025  0.00  0.00     0.055 A 
ATOM      6  C5  BZF d   1      -1.334   4.059  -3.774  0.00  0.00    -0.016 A 
ATOM      7  C6  BZF d   1      -1.066   5.356  -3.389  0.00  0.00     0.022 A 
ATOM      8  C7  BZF d   1      -0.389   5.626  -2.246  0.00  0.00     0.029 A 
ATOM      9  C7A BZF d   1       0.036   4.552  -1.503  0.00  0.00     0.058 A 
ENDROOT
TORSDOF 0
ENDMDL
