MODEL 1
REMARK minimizedAffinity 4.35404348
REMARK minimizedRMSD -1
REMARK  1 active torsions:
REMARK  status: ('A' for Active; 'I' for Inactive)
REMARK    1  A    between atoms: C1_2  and  C2_3 
ROOT
ATOM      1  C2  UNL d   1       1.043   1.507  -1.040  0.00  0.00    -0.077 A 
ATOM      2  C3  UNL d   1       1.073   1.951   0.289  0.00  0.00     0.002 A 
ATOM      3  C4  UNL d   1       1.310   1.051   1.329  0.00  0.00     0.002 A 
ATOM      4  C5  UNL d   1       1.525  -0.297   1.051  0.00  0.00    -0.004 A 
ATOM      5  C6  UNL d   1       1.496  -0.749  -0.267  0.00  0.00     0.002 A 
ATOM      6  C7  UNL d   1       1.257   0.148  -1.308  0.00  0.00     0.002 A 
ENDROOT
BRANCH   1   7
ATOM      7  C1  UNL d   1       0.836   2.484  -2.168  0.00  0.00     0.055 C 
ATOM      8  C   UNL d   1       1.306   3.879  -1.784  0.00  0.00     0.019 C 
ENDBRANCH   1   7
TORSDOF 1
ENDMDL
