MODEL 1
REMARK minimizedAffinity 3.99683523
REMARK minimizedRMSD -1
REMARK  1 active torsions:
REMARK  status: ('A' for Active; 'I' for Inactive)
REMARK    1  A    between atoms: C1_2  and  C2_3 
ROOT
ATOM      1  C2  UNL d   1       1.223   1.552  -1.126  0.00  0.00    -0.077 A 
ATOM      2  C3  UNL d   1       0.921   2.610  -1.995  0.00  0.00     0.002 A 
ATOM      3  C4  UNL d   1       0.672   3.888  -1.491  0.00  0.00     0.002 A 
ATOM      4  C5  UNL d   1       0.726   4.120  -0.119  0.00  0.00    -0.004 A 
ATOM      5  C6  UNL d   1       1.023   3.074   0.754  0.00  0.00     0.002 A 
ATOM      6  C7  UNL d   1       1.272   1.796   0.252  0.00  0.00     0.002 A 
ENDROOT
BRANCH   1   7
ATOM      7  C1  UNL d   1       1.541   0.184  -1.671  0.00  0.00     0.055 C 
ATOM      8  C   UNL d   1       2.296  -0.657  -0.651  0.00  0.00     0.019 C 
ENDBRANCH   1   7
TORSDOF 1
ENDMDL
