MODEL 1
REMARK minimizedAffinity -2.04934835
REMARK minimizedRMSD -1
REMARK  1 active torsions:
REMARK  status: ('A' for Active; 'I' for Inactive)
REMARK    1  A    between atoms: C1_2  and  C2_3 
ROOT
ATOM      1  C2  UNL d   1       1.015  -1.045  -0.924  0.00  0.00    -0.077 A 
ATOM      2  C3  UNL d   1       0.507   0.077  -1.595  0.00  0.00     0.002 A 
ATOM      3  C4  UNL d   1       0.524   1.332  -0.983  0.00  0.00     0.002 A 
ATOM      4  C5  UNL d   1       1.050   1.478   0.299  0.00  0.00    -0.004 A 
ATOM      5  C6  UNL d   1       1.556   0.368   0.974  0.00  0.00     0.002 A 
ATOM      6  C7  UNL d   1       1.539  -0.888   0.365  0.00  0.00     0.002 A 
ENDROOT
BRANCH   1   7
ATOM      7  C1  UNL d   1       1.043  -2.390  -1.601  0.00  0.00     0.055 C 
ATOM      8  C   UNL d   1      -0.231  -3.176  -1.325  0.00  0.00     0.019 C 
ENDBRANCH   1   7
TORSDOF 1
ENDMDL
