MODEL 1
REMARK minimizedAffinity -0.745518804
REMARK minimizedRMSD -1
REMARK  1 active torsions:
REMARK  status: ('A' for Active; 'I' for Inactive)
REMARK    1  A    between atoms: C1_2  and  C2_3 
ROOT
ATOM      1  C2  UNL d   1       0.948   1.861  -1.357  0.00  0.00    -0.077 A 
ATOM      2  C3  UNL d   1       1.179   0.683  -2.082  0.00  0.00     0.002 A 
ATOM      3  C4  UNL d   1       1.401  -0.524  -1.416  0.00  0.00     0.002 A 
ATOM      4  C5  UNL d   1       1.389  -0.565  -0.023  0.00  0.00    -0.004 A 
ATOM      5  C6  UNL d   1       1.161   0.601   0.706  0.00  0.00     0.002 A 
ATOM      6  C7  UNL d   1       0.941   1.808   0.042  0.00  0.00     0.002 A 
ENDROOT
BRANCH   1   7
ATOM      7  C1  UNL d   1       0.660   3.154  -2.074  0.00  0.00     0.055 C 
ATOM      8  C   UNL d   1       1.328   4.332  -1.380  0.00  0.00     0.019 C 
ENDBRANCH   1   7
TORSDOF 1
ENDMDL
