MODEL 1
REMARK minimizedAffinity -2.21606398
REMARK minimizedRMSD -1
REMARK  1 active torsions:
REMARK  status: ('A' for Active; 'I' for Inactive)
REMARK    1  A    between atoms: C1_2  and  C2_3 
ROOT
ATOM      1  C2  UNL d   1       1.267   2.654  -0.930  0.00  0.00    -0.077 A 
ATOM      2  C3  UNL d   1       1.251   1.401  -1.559  0.00  0.00     0.002 A 
ATOM      3  C4  UNL d   1       1.069   0.237  -0.810  0.00  0.00     0.002 A 
ATOM      4  C5  UNL d   1       0.897   0.315   0.571  0.00  0.00    -0.004 A 
ATOM      5  C6  UNL d   1       0.913   1.556   1.206  0.00  0.00     0.002 A 
ATOM      6  C7  UNL d   1       1.097   2.721   0.459  0.00  0.00     0.002 A 
ENDROOT
BRANCH   1   7
ATOM      7  C1  UNL d   1       1.415   3.914  -1.742  0.00  0.00     0.055 C 
ATOM      8  C   UNL d   1       1.798   5.097  -0.865  0.00  0.00     0.019 C 
ENDBRANCH   1   7
TORSDOF 1
ENDMDL
