MODEL 1
REMARK minimizedAffinity -5.276793
REMARK minimizedRMSD -1
REMARK  1 active torsions:
REMARK  status: ('A' for Active; 'I' for Inactive)
REMARK    1  A    between atoms: C1_2  and  C2_3 
ROOT
ATOM      1  C2  UNL d   1       1.010   0.463  -1.153  0.00  0.00    -0.077 A 
ATOM      2  C3  UNL d   1       1.217   1.522  -2.048  0.00  0.00     0.002 A 
ATOM      3  C4  UNL d   1       1.100   2.845  -1.617  0.00  0.00     0.002 A 
ATOM      4  C5  UNL d   1       0.781   3.120  -0.289  0.00  0.00    -0.004 A 
ATOM      5  C6  UNL d   1       0.572   2.074   0.609  0.00  0.00     0.002 A 
ATOM      6  C7  UNL d   1       0.687   0.751   0.179  0.00  0.00     0.002 A 
ENDROOT
BRANCH   1   7
ATOM      7  C1  UNL d   1       1.184  -0.963  -1.605  0.00  0.00     0.055 C 
ATOM      8  C   UNL d   1       1.844  -1.809  -0.526  0.00  0.00     0.019 C 
ENDBRANCH   1   7
TORSDOF 1
ENDMDL
