MODEL 1
REMARK minimizedAffinity -4.25094986
REMARK minimizedRMSD -1
REMARK  1 active torsions:
REMARK  status: ('A' for Active; 'I' for Inactive)
REMARK    1  A    between atoms: C1_2  and  C2_3 
ROOT
ATOM      1  C2  UNL d   1       1.000   0.418  -0.728  0.00  0.00    -0.077 A 
ATOM      2  C3  UNL d   1       1.095   0.504   0.668  0.00  0.00     0.002 A 
ATOM      3  C4  UNL d   1       1.044   1.746   1.305  0.00  0.00     0.002 A 
ATOM      4  C5  UNL d   1       0.895   2.910   0.554  0.00  0.00    -0.004 A 
ATOM      5  C6  UNL d   1       0.801   2.835  -0.835  0.00  0.00     0.002 A 
ATOM      6  C7  UNL d   1       0.853   1.595  -1.473  0.00  0.00     0.002 A 
ENDROOT
BRANCH   1   7
ATOM      7  C1  UNL d   1       1.005  -0.923  -1.412  0.00  0.00     0.055 C 
ATOM      8  C   UNL d   1       1.404  -2.034  -0.451  0.00  0.00     0.019 C 
ENDBRANCH   1   7
TORSDOF 1
ENDMDL
