MODEL 1
REMARK minimizedAffinity -2.65699983
REMARK minimizedRMSD -1
REMARK  1 active torsions:
REMARK  status: ('A' for Active; 'I' for Inactive)
REMARK    1  A    between atoms: C1_2  and  C2_3 
ROOT
ATOM      1  C2  UNL d   1      -3.007   2.610   4.743  0.00  0.00    -0.077 A 
ATOM      2  C3  UNL d   1      -4.350   2.275   4.526  0.00  0.00     0.002 A 
ATOM      3  C4  UNL d   1      -4.727   1.568   3.383  0.00  0.00     0.002 A 
ATOM      4  C5  UNL d   1      -3.765   1.187   2.449  0.00  0.00    -0.004 A 
ATOM      5  C6  UNL d   1      -2.426   1.517   2.655  0.00  0.00     0.002 A 
ATOM      6  C7  UNL d   1      -2.048   2.225   3.796  0.00  0.00     0.002 A 
ENDROOT
BRANCH   1   7
ATOM      7  C1  UNL d   1      -2.592   3.329   6.000  0.00  0.00     0.055 C 
ATOM      8  C   UNL d   1      -2.026   4.707   5.688  0.00  0.00     0.019 C 
ENDBRANCH   1   7
TORSDOF 1
ENDMDL
