MODEL 1
REMARK minimizedAffinity -3.80023432
REMARK minimizedRMSD -1
REMARK  1 active torsions:
REMARK  status: ('A' for Active; 'I' for Inactive)
REMARK    1  A    between atoms: C1_2  and  C2_3 
ROOT
ATOM      1  C2  UNL d   1       1.582  -0.130  -0.327  0.00  0.00    -0.077 A 
ATOM      2  C3  UNL d   1       0.916  -1.363  -0.353  0.00  0.00     0.002 A 
ATOM      3  C4  UNL d   1       1.624  -2.552  -0.167  0.00  0.00     0.002 A 
ATOM      4  C5  UNL d   1       3.000  -2.519   0.050  0.00  0.00    -0.004 A 
ATOM      5  C6  UNL d   1       3.672  -1.298   0.075  0.00  0.00     0.002 A 
ATOM      6  C7  UNL d   1       2.966  -0.108  -0.112  0.00  0.00     0.002 A 
ENDROOT
BRANCH   1   7
ATOM      7  C1  UNL d   1       0.814   1.157  -0.479  0.00  0.00     0.055 C 
ATOM      8  C   UNL d   1       0.892   2.001   0.785  0.00  0.00     0.019 C 
ENDBRANCH   1   7
TORSDOF 1
ENDMDL
