MODEL 1
REMARK minimizedAffinity -4.39562798
REMARK minimizedRMSD -1
REMARK  1 active torsions:
REMARK  status: ('A' for Active; 'I' for Inactive)
REMARK    1  A    between atoms: C1_2  and  C2_3 
ROOT
ATOM      1  C2  UNL d   1       0.887   1.696  -0.518  0.00  0.00    -0.077 A 
ATOM      2  C3  UNL d   1       0.867   0.323  -0.802  0.00  0.00     0.002 A 
ATOM      3  C4  UNL d   1       0.994  -0.128  -2.118  0.00  0.00     0.002 A 
ATOM      4  C5  UNL d   1       1.147   0.787  -3.158  0.00  0.00    -0.004 A 
ATOM      5  C6  UNL d   1       1.166   2.154  -2.885  0.00  0.00     0.002 A 
ATOM      6  C7  UNL d   1       1.037   2.606  -1.571  0.00  0.00     0.002 A 
ENDROOT
BRANCH   1   7
ATOM      7  C1  UNL d   1       0.799   2.182   0.905  0.00  0.00     0.055 C 
ATOM      8  C   UNL d   1       1.646   1.327   1.836  0.00  0.00     0.019 C 
ENDBRANCH   1   7
TORSDOF 1
ENDMDL
