MODEL 1
REMARK minimizedAffinity -0.0534720868
REMARK minimizedRMSD -1
REMARK  1 active torsions:
REMARK  status: ('A' for Active; 'I' for Inactive)
REMARK    1  A    between atoms: C1_2  and  C2_3 
ROOT
ATOM      1  C2  UNL d   1       1.182   0.783   0.006  0.00  0.00    -0.077 A 
ATOM      2  C3  UNL d   1       0.554   1.827   0.699  0.00  0.00     0.002 A 
ATOM      3  C4  UNL d   1       0.887   2.092   2.029  0.00  0.00     0.002 A 
ATOM      4  C5  UNL d   1       1.851   1.321   2.675  0.00  0.00    -0.004 A 
ATOM      5  C6  UNL d   1       2.480   0.279   1.994  0.00  0.00     0.002 A 
ATOM      6  C7  UNL d   1       2.148   0.012   0.665  0.00  0.00     0.002 A 
ENDROOT
BRANCH   1   7
ATOM      7  C1  UNL d   1       0.860   0.528  -1.444  0.00  0.00     0.055 C 
ATOM      8  C   UNL d   1       0.955   1.805  -2.266  0.00  0.00     0.019 C 
ENDBRANCH   1   7
TORSDOF 1
ENDMDL
