MODEL 1
REMARK minimizedAffinity -3.66980743
REMARK minimizedRMSD -1
REMARK  1 active torsions:
REMARK  status: ('A' for Active; 'I' for Inactive)
REMARK    1  A    between atoms: C1_2  and  C2_3 
ROOT
ATOM      1  C2  UNL d   1       0.896   1.431  -0.537  0.00  0.00    -0.077 A 
ATOM      2  C3  UNL d   1      -0.189   1.622  -1.404  0.00  0.00     0.002 A 
ATOM      3  C4  UNL d   1      -0.234   0.964  -2.635  0.00  0.00     0.002 A 
ATOM      4  C5  UNL d   1       0.800   0.109  -3.008  0.00  0.00    -0.004 A 
ATOM      5  C6  UNL d   1       1.885  -0.086  -2.154  0.00  0.00     0.002 A 
ATOM      6  C7  UNL d   1       1.932   0.571  -0.924  0.00  0.00     0.002 A 
ENDROOT
BRANCH   1   7
ATOM      7  C1  UNL d   1       0.924   2.101   0.812  0.00  0.00     0.055 C 
ATOM      8  C   UNL d   1       0.964   3.616   0.676  0.00  0.00     0.019 C 
ENDBRANCH   1   7
TORSDOF 1
ENDMDL
