MODEL 1
REMARK minimizedAffinity -1.00442803
REMARK minimizedRMSD -1
REMARK  1 active torsions:
REMARK  status: ('A' for Active; 'I' for Inactive)
REMARK    1  A    between atoms: C1_2  and  C2_3 
ROOT
ATOM      1  C2  UNL d   1       0.970   0.374  -0.619  0.00  0.00    -0.077 A 
ATOM      2  C3  UNL d   1       0.771   0.867   0.678  0.00  0.00     0.002 A 
ATOM      3  C4  UNL d   1       0.887   2.234   0.940  0.00  0.00     0.002 A 
ATOM      4  C5  UNL d   1       1.197   3.118  -0.091  0.00  0.00    -0.004 A 
ATOM      5  C6  UNL d   1       1.398   2.638  -1.384  0.00  0.00     0.002 A 
ATOM      6  C7  UNL d   1       1.284   1.272  -1.647  0.00  0.00     0.002 A 
ENDROOT
BRANCH   1   7
ATOM      7  C1  UNL d   1       0.797  -1.093  -0.914  0.00  0.00     0.055 C 
ATOM      8  C   UNL d   1       1.576  -1.951   0.073  0.00  0.00     0.019 C 
ENDBRANCH   1   7
TORSDOF 1
ENDMDL
