MODEL 1
REMARK minimizedAffinity -3.37152743
REMARK minimizedRMSD -1
REMARK  1 active torsions:
REMARK  status: ('A' for Active; 'I' for Inactive)
REMARK    1  A    between atoms: C1_2  and  C2_3 
ROOT
ATOM      1  C2  UNL d   1       0.867   1.173  -0.532  0.00  0.00    -0.077 A 
ATOM      2  C3  UNL d   1       1.120   2.130  -1.524  0.00  0.00     0.002 A 
ATOM      3  C4  UNL d   1       1.382   3.456  -1.175  0.00  0.00     0.002 A 
ATOM      4  C5  UNL d   1       1.397   3.836   0.165  0.00  0.00    -0.004 A 
ATOM      5  C6  UNL d   1       1.144   2.892   1.159  0.00  0.00     0.002 A 
ATOM      6  C7  UNL d   1       0.881   1.566   0.813  0.00  0.00     0.002 A 
ENDROOT
BRANCH   1   7
ATOM      7  C1  UNL d   1       0.633  -0.268  -0.903  0.00  0.00     0.055 C 
ATOM      8  C   UNL d   1       1.341  -0.627  -2.201  0.00  0.00     0.019 C 
ENDBRANCH   1   7
TORSDOF 1
ENDMDL
