MODEL 1
REMARK minimizedAffinity -2.53123593
REMARK minimizedRMSD -1
REMARK  1 active torsions:
REMARK  status: ('A' for Active; 'I' for Inactive)
REMARK    1  A    between atoms: C1_2  and  C2_3 
ROOT
ATOM      1  C2  UNL d   1       1.282  -0.200  -0.310  0.00  0.00    -0.077 A 
ATOM      2  C3  UNL d   1       1.481   0.689   0.755  0.00  0.00     0.002 A 
ATOM      3  C4  UNL d   1       1.308   2.063   0.570  0.00  0.00     0.002 A 
ATOM      4  C5  UNL d   1       0.931   2.558  -0.676  0.00  0.00    -0.004 A 
ATOM      5  C6  UNL d   1       0.733   1.682  -1.743  0.00  0.00     0.002 A 
ATOM      6  C7  UNL d   1       0.907   0.309  -1.560  0.00  0.00     0.002 A 
ENDROOT
BRANCH   1   7
ATOM      7  C1  UNL d   1       1.420  -1.685  -0.101  0.00  0.00     0.055 C 
ATOM      8  C   UNL d   1       0.553  -2.465  -1.079  0.00  0.00     0.019 C 
ENDBRANCH   1   7
TORSDOF 1
ENDMDL
