MODEL 1
REMARK minimizedAffinity 1.40435958
REMARK minimizedRMSD -1
REMARK  1 active torsions:
REMARK  status: ('A' for Active; 'I' for Inactive)
REMARK    1  A    between atoms: C1_2  and  C2_3 
ROOT
ATOM      1  C2  UNL d   1       0.708   2.323  -0.114  0.00  0.00    -0.077 A 
ATOM      2  C3  UNL d   1       0.518   1.089   0.523  0.00  0.00     0.002 A 
ATOM      3  C4  UNL d   1       0.788  -0.103  -0.153  0.00  0.00     0.002 A 
ATOM      4  C5  UNL d   1       1.253  -0.072  -1.466  0.00  0.00    -0.004 A 
ATOM      5  C6  UNL d   1       1.443   1.151  -2.108  0.00  0.00     0.002 A 
ATOM      6  C7  UNL d   1       1.173   2.343  -1.435  0.00  0.00     0.002 A 
ENDROOT
BRANCH   1   7
ATOM      7  C1  UNL d   1       0.465   3.611   0.630  0.00  0.00     0.055 C 
ATOM      8  C   UNL d   1       1.084   4.795  -0.097  0.00  0.00     0.019 C 
ENDBRANCH   1   7
TORSDOF 1
ENDMDL
