MODEL 1
REMARK minimizedAffinity -2.63295174
REMARK minimizedRMSD -1
REMARK  0 active torsions:
REMARK  status: ('A' for Active; 'I' for Inactive)
ROOT
ATOM      1  C4' PXY d   1       0.739   0.021  -2.177  0.00  0.00     0.077 C 
ATOM      2  C1' PXY d   1      -0.378   0.050   3.494  0.00  0.00     0.077 C 
ATOM      3  C1  PXY d   1      -0.086   0.055   2.007  0.00  0.00    -0.082 A 
ATOM      4  C2  PXY d   1      -0.324  -1.031   1.290  0.00  0.00     0.003 A 
ATOM      5  C3  PXY d   1      -0.036  -1.054  -0.051  0.00  0.00     0.003 A 
ATOM      6  C4  PXY d   1       0.451   0.064  -0.674  0.00  0.00    -0.082 A 
ATOM      7  C5  PXY d   1       0.686   1.179   0.049  0.00  0.00     0.003 A 
ATOM      8  C6  PXY d   1       0.426   1.169   1.416  0.00  0.00     0.003 A 
ENDROOT
TORSDOF 0
ENDMDL
