MODEL 1
REMARK minimizedAffinity -2.34934592
REMARK minimizedRMSD -1
REMARK  0 active torsions:
REMARK  status: ('A' for Active; 'I' for Inactive)
ROOT
ATOM      1  C4' PXY d   1       0.417  -0.216  -2.087  0.00  0.00     0.077 C 
ATOM      2  C1' PXY d   1      -1.001  -0.714   3.495  0.00  0.00     0.077 C 
ATOM      3  C1  PXY d   1      -0.642  -0.585   2.028  0.00  0.00    -0.082 A 
ATOM      4  C2  PXY d   1       0.596  -0.836   1.633  0.00  0.00     0.003 A 
ATOM      5  C3  PXY d   1       0.946  -0.694   0.315  0.00  0.00     0.003 A 
ATOM      6  C4  PXY d   1       0.007  -0.342  -0.617  0.00  0.00    -0.082 A 
ATOM      7  C5  PXY d   1      -1.260  -0.095  -0.224  0.00  0.00     0.003 A 
ATOM      8  C6  PXY d   1      -1.586  -0.205   1.125  0.00  0.00     0.003 A 
ENDROOT
TORSDOF 0
ENDMDL
