MODEL 1
REMARK minimizedAffinity -5.19205618
REMARK minimizedRMSD -1
REMARK  0 active torsions:
REMARK  status: ('A' for Active; 'I' for Inactive)
ROOT
ATOM      1  C4' PXY d   1       0.739  -0.022  -2.342  0.00  0.00     0.077 C 
ATOM      2  C1' PXY d   1      -0.597  -0.189   3.280  0.00  0.00     0.077 C 
ATOM      3  C1  PXY d   1      -0.256  -0.153   1.803  0.00  0.00    -0.082 A 
ATOM      4  C2  PXY d   1       0.973   0.155   1.422  0.00  0.00     0.003 A 
ATOM      5  C3  PXY d   1       1.290   0.223   0.090  0.00  0.00     0.003 A 
ATOM      6  C4  PXY d   1       0.353  -0.080  -0.861  0.00  0.00    -0.082 A 
ATOM      7  C5  PXY d   1      -0.900  -0.406  -0.481  0.00  0.00     0.003 A 
ATOM      8  C6  PXY d   1      -1.213  -0.429   0.876  0.00  0.00     0.003 A 
ENDROOT
TORSDOF 0
ENDMDL
