MODEL 1
REMARK minimizedAffinity -1.45860541
REMARK minimizedRMSD -1
REMARK  0 active torsions:
REMARK  status: ('A' for Active; 'I' for Inactive)
ROOT
ATOM      1  C4' PXY d   1       0.910  -1.570  -2.225  0.00  0.00     0.077 C 
ATOM      2  C1' PXY d   1      -0.264   0.234   3.140  0.00  0.00     0.077 C 
ATOM      3  C1  PXY d   1       0.050  -0.228   1.731  0.00  0.00    -0.082 A 
ATOM      4  C2  PXY d   1      -0.698  -1.162   1.167  0.00  0.00     0.003 A 
ATOM      5  C3  PXY d   1      -0.409  -1.614  -0.095  0.00  0.00     0.003 A 
ATOM      6  C4  PXY d   1       0.624  -1.066  -0.807  0.00  0.00    -0.082 A 
ATOM      7  C5  PXY d   1       1.386  -0.106  -0.243  0.00  0.00     0.003 A 
ATOM      8  C6  PXY d   1       1.101   0.310   1.055  0.00  0.00     0.003 A 
ENDROOT
TORSDOF 0
ENDMDL
