MODEL 1
REMARK minimizedAffinity -3.81101489
REMARK minimizedRMSD -1
REMARK  0 active torsions:
REMARK  status: ('A' for Active; 'I' for Inactive)
ROOT
ATOM      1  C4' PXY d   1      -0.842  -0.761   3.113  0.00  0.00     0.077 C 
ATOM      2  C1' PXY d   1       0.267   0.142  -2.488  0.00  0.00     0.077 C 
ATOM      3  C1  PXY d   1      -0.037  -0.092  -1.021  0.00  0.00    -0.082 A 
ATOM      4  C2  PXY d   1       0.913   0.094  -0.119  0.00  0.00     0.003 A 
ATOM      5  C3  PXY d   1       0.665  -0.145   1.208  0.00  0.00     0.003 A 
ATOM      6  C4  PXY d   1      -0.583  -0.527   1.622  0.00  0.00    -0.082 A 
ATOM      7  C5  PXY d   1      -1.561  -0.708   0.709  0.00  0.00     0.003 A 
ATOM      8  C6  PXY d   1      -1.277  -0.501  -0.638  0.00  0.00     0.003 A 
ENDROOT
TORSDOF 0
ENDMDL
