MODEL 1
REMARK minimizedAffinity -1.46140957
REMARK minimizedRMSD -1
REMARK  0 active torsions:
REMARK  status: ('A' for Active; 'I' for Inactive)
ROOT
ATOM      1  C4' PXY d   1       1.076  -0.450  -2.248  0.00  0.00     0.077 C 
ATOM      2  C1' PXY d   1      -1.316  -0.431   3.014  0.00  0.00     0.077 C 
ATOM      3  C1  PXY d   1      -0.680  -0.427   1.638  0.00  0.00    -0.082 A 
ATOM      4  C2  PXY d   1      -1.397  -0.784   0.585  0.00  0.00     0.003 A 
ATOM      5  C3  PXY d   1      -0.828  -0.817  -0.662  0.00  0.00     0.003 A 
ATOM      6  C4  PXY d   1       0.473  -0.430  -0.841  0.00  0.00    -0.082 A 
ATOM      7  C5  PXY d   1       1.208  -0.054   0.227  0.00  0.00     0.003 A 
ATOM      8  C6  PXY d   1       0.624  -0.067   1.490  0.00  0.00     0.003 A 
ENDROOT
TORSDOF 0
ENDMDL
