MODEL 1
REMARK minimizedAffinity -3.6400218
REMARK minimizedRMSD -1
REMARK  0 active torsions:
REMARK  status: ('A' for Active; 'I' for Inactive)
ROOT
ATOM      1  C4' PXY d   1      -1.131  -0.923   3.530  0.00  0.00     0.077 C 
ATOM      2  C1' PXY d   1       0.624   0.448  -1.804  0.00  0.00     0.077 C 
ATOM      3  C1  PXY d   1       0.176   0.088  -0.401  0.00  0.00    -0.082 A 
ATOM      4  C2  PXY d   1      -0.986  -0.518  -0.221  0.00  0.00     0.003 A 
ATOM      5  C3  PXY d   1      -1.421  -0.821   1.044  0.00  0.00     0.003 A 
ATOM      6  C4  PXY d   1      -0.634  -0.549   2.131  0.00  0.00    -0.082 A 
ATOM      7  C5  PXY d   1       0.558   0.059   1.954  0.00  0.00     0.003 A 
ATOM      8  C6  PXY d   1       0.962   0.396   0.665  0.00  0.00     0.003 A 
ENDROOT
TORSDOF 0
ENDMDL
