MODEL 1
REMARK minimizedAffinity -5.55234623
REMARK minimizedRMSD -1
REMARK  0 active torsions:
REMARK  status: ('A' for Active; 'I' for Inactive)
ROOT
ATOM      1  C4' PXY d   1      -0.049   0.353  -1.826  0.00  0.00     0.077 C 
ATOM      2  C1' PXY d   1      -1.167  -0.430   3.791  0.00  0.00     0.077 C 
ATOM      3  C1  PXY d   1      -0.885  -0.231   2.315  0.00  0.00    -0.082 A 
ATOM      4  C2  PXY d   1       0.362  -0.074   1.903  0.00  0.00     0.003 A 
ATOM      5  C3  PXY d   1       0.632   0.139   0.575  0.00  0.00     0.003 A 
ATOM      6  C4  PXY d   1      -0.380   0.139  -0.347  0.00  0.00    -0.082 A 
ATOM      7  C5  PXY d   1      -1.655  -0.030   0.065  0.00  0.00     0.003 A 
ATOM      8  C6  PXY d   1      -1.912  -0.204   1.422  0.00  0.00     0.003 A 
ENDROOT
TORSDOF 0
ENDMDL
