MODEL 1
REMARK minimizedAffinity -5.16403484
REMARK minimizedRMSD -1
REMARK  0 active torsions:
REMARK  status: ('A' for Active; 'I' for Inactive)
ROOT
ATOM      1  C4' PXY d   1       2.257   0.434   1.143  0.00  0.00     0.077 C 
ATOM      2  C1' PXY d   1      -3.446  -0.155   1.881  0.00  0.00     0.077 C 
ATOM      3  C1  PXY d   1      -1.951  -0.005   1.675  0.00  0.00    -0.082 A 
ATOM      4  C2  PXY d   1      -1.140  -0.043   2.720  0.00  0.00     0.003 A 
ATOM      5  C3  PXY d   1       0.211   0.123   2.555  0.00  0.00     0.003 A 
ATOM      6  C4  PXY d   1       0.743   0.277   1.302  0.00  0.00    -0.082 A 
ATOM      7  C5  PXY d   1      -0.078   0.306   0.231  0.00  0.00     0.003 A 
ATOM      8  C6  PXY d   1      -1.450   0.177   0.423  0.00  0.00     0.003 A 
ENDROOT
TORSDOF 0
ENDMDL
