MODEL 1
REMARK minimizedAffinity -4.65132713
REMARK minimizedRMSD -1
REMARK  0 active torsions:
REMARK  status: ('A' for Active; 'I' for Inactive)
ROOT
ATOM      1  C4' PXY d   1      -0.534  -0.605   3.336  0.00  0.00     0.077 C 
ATOM      2  C1' PXY d   1      -0.280   1.244  -2.135  0.00  0.00     0.077 C 
ATOM      3  C1  PXY d   1      -0.334   0.756  -0.700  0.00  0.00    -0.082 A 
ATOM      4  C2  PXY d   1      -1.472   0.296  -0.208  0.00  0.00     0.003 A 
ATOM      5  C3  PXY d   1      -1.547  -0.119   1.096  0.00  0.00     0.003 A 
ATOM      6  C4  PXY d   1      -0.431  -0.112   1.890  0.00  0.00    -0.082 A 
ATOM      7  C5  PXY d   1       0.737   0.347   1.392  0.00  0.00     0.003 A 
ATOM      8  C6  PXY d   1       0.781   0.802   0.078  0.00  0.00     0.003 A 
ENDROOT
TORSDOF 0
ENDMDL
