MODEL 1
REMARK minimizedAffinity -5.76666546
REMARK minimizedRMSD -1
REMARK  0 active torsions:
REMARK  status: ('A' for Active; 'I' for Inactive)
ROOT
ATOM      1  C4' PXY d   1      -0.255  -0.358   3.355  0.00  0.00     0.077 C 
ATOM      2  C1' PXY d   1       0.543   0.048  -2.356  0.00  0.00     0.077 C 
ATOM      3  C1  PXY d   1       0.347  -0.061  -0.856  0.00  0.00    -0.082 A 
ATOM      4  C2  PXY d   1      -0.842  -0.387  -0.375  0.00  0.00     0.003 A 
ATOM      5  C3  PXY d   1      -1.045  -0.459   0.980  0.00  0.00     0.003 A 
ATOM      6  C4  PXY d   1      -0.008  -0.246   1.848  0.00  0.00    -0.082 A 
ATOM      7  C5  PXY d   1       1.210   0.077   1.364  0.00  0.00     0.003 A 
ATOM      8  C6  PXY d   1       1.385   0.185  -0.012  0.00  0.00     0.003 A 
ENDROOT
TORSDOF 0
ENDMDL
