MODEL 1
REMARK minimizedAffinity -4.76950312
REMARK minimizedRMSD -1
REMARK  0 active torsions:
REMARK  status: ('A' for Active; 'I' for Inactive)
ROOT
ATOM      1  C4' PXY d   1       1.055   0.373  -1.964  0.00  0.00     0.077 C 
ATOM      2  C1' PXY d   1      -0.847  -1.035   3.311  0.00  0.00     0.077 C 
ATOM      3  C1  PXY d   1      -0.341  -0.655   1.933  0.00  0.00    -0.082 A 
ATOM      4  C2  PXY d   1      -1.036  -1.004   0.862  0.00  0.00     0.003 A 
ATOM      5  C3  PXY d   1      -0.578  -0.697  -0.393  0.00  0.00     0.003 A 
ATOM      6  C4  PXY d   1       0.578   0.020  -0.552  0.00  0.00    -0.082 A 
ATOM      7  C5  PXY d   1       1.287   0.389   0.535  0.00  0.00     0.003 A 
ATOM      8  C6  PXY d   1       0.826   0.032   1.799  0.00  0.00     0.003 A 
ENDROOT
TORSDOF 0
ENDMDL
