MODEL 1
REMARK minimizedAffinity -4.53028107
REMARK minimizedRMSD -1
REMARK  0 active torsions:
REMARK  status: ('A' for Active; 'I' for Inactive)
ROOT
ATOM      1  C4' PXY d   1       0.819   0.535  -1.832  0.00  0.00     0.077 C 
ATOM      2  C1' PXY d   1      -1.977  -0.118   3.185  0.00  0.00     0.077 C 
ATOM      3  C1  PXY d   1      -1.254   0.048   1.863  0.00  0.00    -0.082 A 
ATOM      4  C2  PXY d   1       0.067   0.127   1.845  0.00  0.00     0.003 A 
ATOM      5  C3  PXY d   1       0.735   0.310   0.662  0.00  0.00     0.003 A 
ATOM      6  C4  PXY d   1       0.047   0.358  -0.521  0.00  0.00    -0.082 A 
ATOM      7  C5  PXY d   1      -1.299   0.267  -0.513  0.00  0.00     0.003 A 
ATOM      8  C6  PXY d   1      -1.962   0.124   0.703  0.00  0.00     0.003 A 
ENDROOT
TORSDOF 0
ENDMDL
