MODEL 1
REMARK minimizedAffinity -4.5114603
REMARK minimizedRMSD -1
REMARK  0 active torsions:
REMARK  status: ('A' for Active; 'I' for Inactive)
ROOT
ATOM      1  C4' PXY d   1      -0.417  -0.507   2.958  0.00  0.00     0.077 C 
ATOM      2  C1' PXY d   1       1.056   0.363  -2.564  0.00  0.00     0.077 C 
ATOM      3  C1  PXY d   1       0.682   0.133  -1.113  0.00  0.00    -0.082 A 
ATOM      4  C2  PXY d   1      -0.542  -0.266  -0.808  0.00  0.00     0.003 A 
ATOM      5  C3  PXY d   1      -0.906  -0.448   0.501  0.00  0.00     0.003 A 
ATOM      6  C4  PXY d   1       0.007  -0.271   1.506  0.00  0.00    -0.082 A 
ATOM      7  C5  PXY d   1       1.261   0.126   1.202  0.00  0.00     0.003 A 
ATOM      8  C6  PXY d   1       1.599   0.345  -0.130  0.00  0.00     0.003 A 
ENDROOT
TORSDOF 0
ENDMDL
