MODEL 1
REMARK minimizedAffinity -3.81801867
REMARK minimizedRMSD -1
REMARK  0 active torsions:
REMARK  status: ('A' for Active; 'I' for Inactive)
ROOT
ATOM      1  C4' PXY d   1       0.794   0.010  -2.094  0.00  0.00     0.077 C 
ATOM      2  C1' PXY d   1      -0.970  -0.314   3.402  0.00  0.00     0.077 C 
ATOM      3  C1  PXY d   1      -0.498  -0.221   1.964  0.00  0.00    -0.082 A 
ATOM      4  C2  PXY d   1      -1.356  -0.427   0.979  0.00  0.00     0.003 A 
ATOM      5  C3  PXY d   1      -0.939  -0.379  -0.326  0.00  0.00     0.003 A 
ATOM      6  C4  PXY d   1       0.359  -0.064  -0.627  0.00  0.00    -0.082 A 
ATOM      7  C5  PXY d   1       1.239   0.158   0.372  0.00  0.00     0.003 A 
ATOM      8  C6  PXY d   1       0.805   0.063   1.691  0.00  0.00     0.003 A 
ENDROOT
TORSDOF 0
ENDMDL
