MODEL 1
REMARK minimizedAffinity -5.41530752
REMARK minimizedRMSD -1
REMARK  0 active torsions:
REMARK  status: ('A' for Active; 'I' for Inactive)
ROOT
ATOM      1  C4' PXY d   1       0.170   0.201  -2.336  0.00  0.00     0.077 C 
ATOM      2  C1' PXY d   1      -0.394  -0.643   3.355  0.00  0.00     0.077 C 
ATOM      3  C1  PXY d   1      -0.236  -0.414   1.865  0.00  0.00    -0.082 A 
ATOM      4  C2  PXY d   1      -1.286  -0.533   1.069  0.00  0.00     0.003 A 
ATOM      5  C3  PXY d   1      -1.155  -0.361  -0.285  0.00  0.00     0.003 A 
ATOM      6  C4  PXY d   1       0.054  -0.012  -0.824  0.00  0.00    -0.082 A 
ATOM      7  C5  PXY d   1       1.129   0.122  -0.018  0.00  0.00     0.003 A 
ATOM      8  C6  PXY d   1       0.983  -0.097   1.349  0.00  0.00     0.003 A 
ENDROOT
TORSDOF 0
ENDMDL
