MODEL 1
REMARK minimizedAffinity -2.47250533
REMARK minimizedRMSD -1
REMARK  0 active torsions:
REMARK  status: ('A' for Active; 'I' for Inactive)
ROOT
ATOM      1  C4' PXY d   1      -0.038   0.107   3.099  0.00  0.00     0.077 C 
ATOM      2  C1' PXY d   1       0.567  -0.261  -2.638  0.00  0.00     0.077 C 
ATOM      3  C1  PXY d   1       0.421  -0.166  -1.132  0.00  0.00    -0.082 A 
ATOM      4  C2  PXY d   1      -0.751  -0.414  -0.571  0.00  0.00     0.003 A 
ATOM      5  C3  PXY d   1      -0.909  -0.302   0.786  0.00  0.00     0.003 A 
ATOM      6  C4  PXY d   1       0.158   0.015   1.584  0.00  0.00    -0.082 A 
ATOM      7  C5  PXY d   1       1.361   0.258   1.020  0.00  0.00     0.003 A 
ATOM      8  C6  PXY d   1       1.490   0.179  -0.363  0.00  0.00     0.003 A 
ENDROOT
TORSDOF 0
ENDMDL
