MODEL 1
REMARK minimizedAffinity -4.13580704
REMARK minimizedRMSD -1
REMARK  0 active torsions:
REMARK  status: ('A' for Active; 'I' for Inactive)
ROOT
ATOM      1  C4' PXY d   1       0.131   0.476  -2.134  0.00  0.00     0.077 C 
ATOM      2  C1' PXY d   1      -1.375  -0.654   3.332  0.00  0.00     0.077 C 
ATOM      3  C1  PXY d   1      -0.991  -0.363   1.894  0.00  0.00    -0.082 A 
ATOM      4  C2  PXY d   1       0.287  -0.273   1.563  0.00  0.00     0.003 A 
ATOM      5  C3  PXY d   1       0.651   0.021   0.275  0.00  0.00     0.003 A 
ATOM      6  C4  PXY d   1      -0.302   0.174  -0.697  0.00  0.00    -0.082 A 
ATOM      7  C5  PXY d   1      -1.608   0.073  -0.369  0.00  0.00     0.003 A 
ATOM      8  C6  PXY d   1      -1.957  -0.185   0.953  0.00  0.00     0.003 A 
ENDROOT
TORSDOF 0
ENDMDL
