MODEL 1
REMARK minimizedAffinity -4.28209305
REMARK minimizedRMSD -1
REMARK  0 active torsions:
REMARK  status: ('A' for Active; 'I' for Inactive)
ROOT
ATOM      1  C4' PXY d   1      -1.127  -0.426   3.303  0.00  0.00     0.077 C 
ATOM      2  C1' PXY d   1       0.376  -0.207  -2.274  0.00  0.00     0.077 C 
ATOM      3  C1  PXY d   1      -0.027  -0.255  -0.814  0.00  0.00    -0.082 A 
ATOM      4  C2  PXY d   1       0.843  -0.673   0.092  0.00  0.00     0.003 A 
ATOM      5  C3  PXY d   1       0.485  -0.753   1.413  0.00  0.00     0.003 A 
ATOM      6  C4  PXY d   1      -0.760  -0.352   1.818  0.00  0.00    -0.082 A 
ATOM      7  C5  PXY d   1      -1.650   0.086   0.902  0.00  0.00     0.003 A 
ATOM      8  C6  PXY d   1      -1.280   0.120  -0.439  0.00  0.00     0.003 A 
ENDROOT
TORSDOF 0
ENDMDL
