MODEL 1
REMARK minimizedAffinity -3.12376595
REMARK minimizedRMSD -1
REMARK  0 active torsions:
REMARK  status: ('A' for Active; 'I' for Inactive)
ROOT
ATOM      1  N1  IND d   1      -0.754   0.921  -1.120  0.00  0.00    -0.196 N 
ATOM      2  C2  IND d   1       0.424   1.589  -1.309  0.00  0.00     0.054 A 
ATOM      3  C3  IND d   1       1.406   1.030  -0.566  0.00  0.00    -0.031 A 
ATOM      4  C4  IND d   1       1.326  -1.048   0.952  0.00  0.00     0.051 A 
ATOM      5  C5  IND d   1       0.462  -1.971   1.469  0.00  0.00    -0.031 A 
ATOM      6  C6  IND d   1      -0.878  -1.980   1.141  0.00  0.00     0.015 A 
ATOM      7  C7  IND d   1      -1.404  -1.068   0.271  0.00  0.00    -0.016 A 
ATOM      8  C8  IND d   1      -0.531  -0.124  -0.251  0.00  0.00    -0.047 A 
ATOM      9  C9  IND d   1       0.822  -0.084   0.111  0.00  0.00    -0.096 A 
ATOM     10  HN1 IND d   1      -1.507   1.121  -1.483  0.00  0.00     0.298 HD
ENDROOT
TORSDOF 0
ENDMDL
