MODEL 1
REMARK minimizedAffinity -2.86139727
REMARK minimizedRMSD -1
REMARK  0 active torsions:
REMARK  status: ('A' for Active; 'I' for Inactive)
ROOT
ATOM      1  N1  IND d   1       1.180  -0.157  -0.227  0.00  0.00    -0.196 N 
ATOM      2  C2  IND d   1       0.868   1.051  -0.787  0.00  0.00     0.054 A 
ATOM      3  C3  IND d   1      -0.468   1.255  -0.751  0.00  0.00    -0.031 A 
ATOM      4  C4  IND d   1      -2.320  -0.212   0.271  0.00  0.00     0.051 A 
ATOM      5  C5  IND d   1      -2.529  -1.427   0.862  0.00  0.00    -0.031 A 
ATOM      6  C6  IND d   1      -1.491  -2.296   1.128  0.00  0.00     0.015 A 
ATOM      7  C7  IND d   1      -0.199  -1.978   0.822  0.00  0.00    -0.016 A 
ATOM      8  C8  IND d   1       0.017  -0.748   0.215  0.00  0.00    -0.047 A 
ATOM      9  C9  IND d   1      -1.037   0.120  -0.096  0.00  0.00    -0.096 A 
ATOM     10  HN1 IND d   1       1.969  -0.491  -0.163  0.00  0.00     0.298 HD
ENDROOT
TORSDOF 0
ENDMDL
