MODEL 1
REMARK minimizedAffinity -5.67541885
REMARK minimizedRMSD -1
REMARK  0 active torsions:
REMARK  status: ('A' for Active; 'I' for Inactive)
ROOT
ATOM      1  N1  IND d   1      -0.311   0.895   0.230  0.00  0.00    -0.196 N 
ATOM      2  C2  IND d   1       0.775   0.369  -0.413  0.00  0.00     0.054 A 
ATOM      3  C3  IND d   1       0.784  -0.978  -0.297  0.00  0.00    -0.031 A 
ATOM      4  C4  IND d   1      -0.938  -2.534   0.818  0.00  0.00     0.051 A 
ATOM      5  C5  IND d   1      -2.079  -2.515   1.569  0.00  0.00    -0.031 A 
ATOM      6  C6  IND d   1      -2.704  -1.335   1.916  0.00  0.00     0.015 A 
ATOM      7  C7  IND d   1      -2.214  -0.125   1.515  0.00  0.00    -0.016 A 
ATOM      8  C8  IND d   1      -1.051  -0.140   0.758  0.00  0.00    -0.047 A 
ATOM      9  C9  IND d   1      -0.389  -1.332   0.438  0.00  0.00    -0.096 A 
ATOM     10  HN1 IND d   1      -0.499   1.732   0.294  0.00  0.00     0.298 HD
ENDROOT
TORSDOF 0
ENDMDL
