MODEL 1
REMARK minimizedAffinity -3.08571196
REMARK minimizedRMSD -1
REMARK  0 active torsions:
REMARK  status: ('A' for Active; 'I' for Inactive)
ROOT
ATOM      1  N1  IND d   1      -1.819  -1.752   0.494  0.00  0.00    -0.196 N 
ATOM      2  C2  IND d   1      -1.136  -2.838   0.968  0.00  0.00     0.054 A 
ATOM      3  C3  IND d   1       0.189  -2.575   1.018  0.00  0.00    -0.031 A 
ATOM      4  C4  IND d   1       1.446  -0.396   0.468  0.00  0.00     0.051 A 
ATOM      5  C5  IND d   1       1.255   0.860  -0.037  0.00  0.00    -0.031 A 
ATOM      6  C6  IND d   1       0.004   1.319  -0.395  0.00  0.00     0.015 A 
ATOM      7  C7  IND d   1      -1.109   0.540  -0.250  0.00  0.00    -0.016 A 
ATOM      8  C8  IND d   1      -0.918  -0.738   0.255  0.00  0.00    -0.047 A 
ATOM      9  C9  IND d   1       0.355  -1.225   0.581  0.00  0.00    -0.096 A 
ATOM     10  HN1 IND d   1      -2.668  -1.710   0.367  0.00  0.00     0.298 HD
ENDROOT
TORSDOF 0
ENDMDL
