MODEL 1
REMARK minimizedAffinity -1.62127531
REMARK minimizedRMSD -1
REMARK  0 active torsions:
REMARK  status: ('A' for Active; 'I' for Inactive)
ROOT
ATOM      1  N1  IND d   1      -1.093   1.113   0.606  0.00  0.00    -0.196 N 
ATOM      2  C2  IND d   1       0.003   1.674   0.012  0.00  0.00     0.054 A 
ATOM      3  C3  IND d   1       0.903   0.718  -0.313  0.00  0.00    -0.031 A 
ATOM      4  C4  IND d   1       0.740  -1.838  -0.054  0.00  0.00     0.051 A 
ATOM      5  C5  IND d   1      -0.056  -2.819   0.468  0.00  0.00    -0.031 A 
ATOM      6  C6  IND d   1      -1.263  -2.534   1.073  0.00  0.00     0.015 A 
ATOM      7  C7  IND d   1      -1.727  -1.253   1.168  0.00  0.00    -0.016 A 
ATOM      8  C8  IND d   1      -0.919  -0.253   0.645  0.00  0.00    -0.047 A 
ATOM      9  C9  IND d   1       0.327  -0.532   0.069  0.00  0.00    -0.096 A 
ATOM     10  HN1 IND d   1      -1.775   1.541   0.905  0.00  0.00     0.298 HD
ENDROOT
TORSDOF 0
ENDMDL
