MODEL 1
REMARK minimizedAffinity -1.65554011
REMARK minimizedRMSD -1
REMARK  0 active torsions:
REMARK  status: ('A' for Active; 'I' for Inactive)
ROOT
ATOM      1  N1  IND d   1       1.096  -0.182   1.120  0.00  0.00    -0.196 N 
ATOM      2  C2  IND d   1       0.763   0.338  -0.100  0.00  0.00     0.054 A 
ATOM      3  C3  IND d   1      -0.285  -0.334  -0.627  0.00  0.00    -0.031 A 
ATOM      4  C4  IND d   1      -1.673  -2.253   0.383  0.00  0.00     0.051 A 
ATOM      5  C5  IND d   1      -1.726  -3.093   1.460  0.00  0.00    -0.031 A 
ATOM      6  C6  IND d   1      -0.825  -3.001   2.501  0.00  0.00     0.015 A 
ATOM      7  C7  IND d   1       0.160  -2.055   2.509  0.00  0.00    -0.016 A 
ATOM      8  C8  IND d   1       0.222  -1.206   1.414  0.00  0.00    -0.047 A 
ATOM      9  C9  IND d   1      -0.663  -1.321   0.334  0.00  0.00    -0.096 A 
ATOM     10  HN1 IND d   1       1.743   0.085   1.619  0.00  0.00     0.298 HD
ENDROOT
TORSDOF 0
ENDMDL
