MODEL 1
REMARK minimizedAffinity -3.22990298
REMARK minimizedRMSD -1
REMARK  0 active torsions:
REMARK  status: ('A' for Active; 'I' for Inactive)
ROOT
ATOM      1  N1  IND d   1      -0.863   0.344   0.055  0.00  0.00    -0.196 N 
ATOM      2  C2  IND d   1      -0.019  -0.626   0.519  0.00  0.00     0.054 A 
ATOM      3  C3  IND d   1       1.229  -0.433   0.037  0.00  0.00    -0.031 A 
ATOM      4  C4  IND d   1       2.135   1.466  -1.447  0.00  0.00     0.051 A 
ATOM      5  C5  IND d   1       1.734   2.565  -2.154  0.00  0.00    -0.031 A 
ATOM      6  C6  IND d   1       0.421   2.990  -2.158  0.00  0.00     0.015 A 
ATOM      7  C7  IND d   1      -0.542   2.336  -1.443  0.00  0.00    -0.016 A 
ATOM      8  C8  IND d   1      -0.140   1.215  -0.730  0.00  0.00    -0.047 A 
ATOM      9  C9  IND d   1       1.182   0.754  -0.756  0.00  0.00    -0.096 A 
ATOM     10  HN1 IND d   1      -1.704   0.401   0.225  0.00  0.00     0.298 HD
ENDROOT
TORSDOF 0
ENDMDL
