MODEL 1
REMARK minimizedAffinity -2.53684878
REMARK minimizedRMSD -1
REMARK  0 active torsions:
REMARK  status: ('A' for Active; 'I' for Inactive)
ROOT
ATOM      1  N1  IND d   1      -1.007  -0.276  -0.005  0.00  0.00    -0.196 N 
ATOM      2  C2  IND d   1      -0.030  -1.059   0.543  0.00  0.00     0.054 A 
ATOM      3  C3  IND d   1       1.185  -0.690   0.078  0.00  0.00    -0.031 A 
ATOM      4  C4  IND d   1       1.812   1.236  -1.511  0.00  0.00     0.051 A 
ATOM      5  C5  IND d   1       1.259   2.206  -2.299  0.00  0.00    -0.031 A 
ATOM      6  C6  IND d   1      -0.106   2.403  -2.363  0.00  0.00     0.015 A 
ATOM      7  C7  IND d   1      -0.970   1.643  -1.628  0.00  0.00    -0.016 A 
ATOM      8  C8  IND d   1      -0.413   0.653  -0.831  0.00  0.00    -0.047 A 
ATOM      9  C9  IND d   1       0.968   0.420  -0.795  0.00  0.00    -0.096 A 
ATOM     10  HN1 IND d   1      -1.851  -0.350   0.141  0.00  0.00     0.298 HD
ENDROOT
TORSDOF 0
ENDMDL
