MODEL 1
REMARK minimizedAffinity -2.56549168
REMARK minimizedRMSD -1
REMARK  0 active torsions:
REMARK  status: ('A' for Active; 'I' for Inactive)
ROOT
ATOM      1  N1  IND d   1       1.437  -0.005   0.676  0.00  0.00    -0.196 N 
ATOM      2  C2  IND d   1       1.231   0.995  -0.233  0.00  0.00     0.054 A 
ATOM      3  C3  IND d   1       0.013   0.867  -0.806  0.00  0.00    -0.031 A 
ATOM      4  C4  IND d   1      -1.846  -0.849  -0.329  0.00  0.00     0.051 A 
ATOM      5  C5  IND d   1      -2.109  -1.980   0.392  0.00  0.00    -0.031 A 
ATOM      6  C6  IND d   1      -1.186  -2.519   1.265  0.00  0.00     0.015 A 
ATOM      7  C7  IND d   1       0.035  -1.939   1.458  0.00  0.00    -0.016 A 
ATOM      8  C8  IND d   1       0.309  -0.795   0.722  0.00  0.00    -0.047 A 
ATOM      9  C9  IND d   1      -0.607  -0.267  -0.197  0.00  0.00    -0.096 A 
ATOM     10  HN1 IND d   1       2.151  -0.121   1.141  0.00  0.00     0.298 HD
ENDROOT
TORSDOF 0
ENDMDL
