MODEL 1
REMARK minimizedAffinity -3.04696608
REMARK minimizedRMSD -1
REMARK  0 active torsions:
REMARK  status: ('A' for Active; 'I' for Inactive)
ROOT
ATOM      1  N1  IND d   1       1.369   0.257   0.019  0.00  0.00    -0.196 N 
ATOM      2  C2  IND d   1       0.786   1.307  -0.634  0.00  0.00     0.054 A 
ATOM      3  C3  IND d   1      -0.547   1.113  -0.740  0.00  0.00    -0.031 A 
ATOM      4  C4  IND d   1      -1.999  -0.806   0.176  0.00  0.00     0.051 A 
ATOM      5  C5  IND d   1      -1.912  -2.013   0.810  0.00  0.00    -0.031 A 
ATOM      6  C6  IND d   1      -0.704  -2.535   1.224  0.00  0.00     0.015 A 
ATOM      7  C7  IND d   1       0.468  -1.860   1.028  0.00  0.00    -0.016 A 
ATOM      8  C8  IND d   1       0.385  -0.637   0.378  0.00  0.00    -0.047 A 
ATOM      9  C9  IND d   1      -0.834  -0.122  -0.082  0.00  0.00    -0.096 A 
ATOM     10  HN1 IND d   1       2.210   0.170   0.179  0.00  0.00     0.298 HD
ENDROOT
TORSDOF 0
ENDMDL
