MODEL 1
REMARK minimizedAffinity -5.25494671
REMARK minimizedRMSD -1
REMARK  0 active torsions:
REMARK  status: ('A' for Active; 'I' for Inactive)
ROOT
ATOM      1  N1  IND d   1       0.031   1.002   0.358  0.00  0.00    -0.196 N 
ATOM      2  C2  IND d   1       1.161   0.546  -0.261  0.00  0.00     0.054 A 
ATOM      3  C3  IND d   1       1.143  -0.803  -0.341  0.00  0.00    -0.031 A 
ATOM      4  C4  IND d   1      -0.689  -2.459   0.388  0.00  0.00     0.051 A 
ATOM      5  C5  IND d   1      -1.890  -2.520   1.036  0.00  0.00    -0.031 A 
ATOM      6  C6  IND d   1      -2.527  -1.386   1.498  0.00  0.00     0.015 A 
ATOM      7  C7  IND d   1      -1.989  -0.143   1.318  0.00  0.00    -0.016 A 
ATOM      8  C8  IND d   1      -0.765  -0.079   0.667  0.00  0.00    -0.047 A 
ATOM      9  C9  IND d   1      -0.094  -1.229   0.234  0.00  0.00    -0.096 A 
ATOM     10  HN1 IND d   1      -0.151   1.825   0.527  0.00  0.00     0.298 HD
ENDROOT
TORSDOF 0
ENDMDL
