MODEL 1
REMARK minimizedAffinity -3.03006291
REMARK minimizedRMSD -1
REMARK  0 active torsions:
REMARK  status: ('A' for Active; 'I' for Inactive)
ROOT
ATOM      1  N1  IND d   1      -0.354  -2.117   1.962  0.00  0.00    -0.196 N 
ATOM      2  C2  IND d   1      -1.252  -2.962   1.373  0.00  0.00     0.054 A 
ATOM      3  C3  IND d   1      -1.563  -2.527   0.131  0.00  0.00    -0.031 A 
ATOM      4  C4  IND d   1      -0.639  -0.508  -1.173  0.00  0.00     0.051 A 
ATOM      5  C5  IND d   1       0.176   0.580  -1.038  0.00  0.00    -0.031 A 
ATOM      6  C6  IND d   1       0.872   0.829   0.127  0.00  0.00     0.015 A 
ATOM      7  C7  IND d   1       0.788  -0.012   1.201  0.00  0.00    -0.016 A 
ATOM      8  C8  IND d   1      -0.045  -1.114   1.070  0.00  0.00    -0.047 A 
ATOM      9  C9  IND d   1      -0.787  -1.349  -0.095  0.00  0.00    -0.096 A 
ATOM     10  HN1 IND d   1      -0.036  -2.197   2.757  0.00  0.00     0.298 HD
ENDROOT
TORSDOF 0
ENDMDL
