MODEL 1
REMARK minimizedAffinity -4.87682295
REMARK minimizedRMSD -1
REMARK  0 active torsions:
REMARK  status: ('A' for Active; 'I' for Inactive)
ROOT
ATOM      1  N1  IND d   1       0.414  -2.214   0.155  0.00  0.00    -0.196 N 
ATOM      2  C2  IND d   1      -0.690  -2.928   0.532  0.00  0.00     0.054 A 
ATOM      3  C3  IND d   1      -1.694  -2.092   0.880  0.00  0.00    -0.031 A 
ATOM      4  C4  IND d   1      -1.780   0.480   0.808  0.00  0.00     0.051 A 
ATOM      5  C5  IND d   1      -1.001   1.578   0.567  0.00  0.00    -0.031 A 
ATOM      6  C6  IND d   1       0.314   1.465   0.166  0.00  0.00     0.015 A 
ATOM      7  C7  IND d   1       0.899   0.245  -0.021  0.00  0.00    -0.016 A 
ATOM      8  C8  IND d   1       0.114  -0.872   0.229  0.00  0.00    -0.047 A 
ATOM      9  C9  IND d   1      -1.208  -0.764   0.678  0.00  0.00    -0.096 A 
ATOM     10  HN1 IND d   1       1.168  -2.548  -0.088  0.00  0.00     0.298 HD
ENDROOT
TORSDOF 0
ENDMDL
