MODEL 1
REMARK minimizedAffinity -5.38189125
REMARK minimizedRMSD -1
REMARK  0 active torsions:
REMARK  status: ('A' for Active; 'I' for Inactive)
ROOT
ATOM      1  N1  IND d   1      -2.520  -2.176   1.369  0.00  0.00    -0.196 N 
ATOM      2  C2  IND d   1      -3.299  -1.128   1.771  0.00  0.00     0.054 A 
ATOM      3  C3  IND d   1      -2.660   0.044   1.553  0.00  0.00    -0.031 A 
ATOM      4  C4  IND d   1      -0.373   0.480   0.454  0.00  0.00     0.051 A 
ATOM      5  C5  IND d   1       0.724  -0.167  -0.042  0.00  0.00    -0.031 A 
ATOM      6  C6  IND d   1       0.797  -1.544  -0.097  0.00  0.00     0.015 A 
ATOM      7  C7  IND d   1      -0.235  -2.329   0.334  0.00  0.00    -0.016 A 
ATOM      8  C8  IND d   1      -1.348  -1.676   0.845  0.00  0.00    -0.047 A 
ATOM      9  C9  IND d   1      -1.410  -0.280   0.942  0.00  0.00    -0.096 A 
ATOM     10  HN1 IND d   1      -2.726  -3.009   1.433  0.00  0.00     0.298 HD
ENDROOT
TORSDOF 0
ENDMDL
