MODEL 1
REMARK minimizedAffinity -2.95013857
REMARK minimizedRMSD -1
REMARK  0 active torsions:
REMARK  status: ('A' for Active; 'I' for Inactive)
ROOT
ATOM      1  N1  IND d   1      -0.408   1.164  -1.007  0.00  0.00    -0.196 N 
ATOM      2  C2  IND d   1       0.880   1.580  -1.198  0.00  0.00     0.054 A 
ATOM      3  C3  IND d   1       1.743   0.726  -0.603  0.00  0.00    -0.031 A 
ATOM      4  C4  IND d   1       1.266  -1.471   0.651  0.00  0.00     0.051 A 
ATOM      5  C5  IND d   1       0.241  -2.246   1.114  0.00  0.00    -0.031 A 
ATOM      6  C6  IND d   1      -1.081  -1.920   0.886  0.00  0.00     0.015 A 
ATOM      7  C7  IND d   1      -1.426  -0.806   0.174  0.00  0.00    -0.016 A 
ATOM      8  C8  IND d   1      -0.388  -0.012  -0.291  0.00  0.00    -0.047 A 
ATOM      9  C9  IND d   1       0.954  -0.316  -0.026  0.00  0.00    -0.096 A 
ATOM     10  HN1 IND d   1      -1.113   1.570  -1.287  0.00  0.00     0.298 HD
ENDROOT
TORSDOF 0
ENDMDL
