MODEL 1
REMARK minimizedAffinity -3.91383696
REMARK minimizedRMSD -1
REMARK  0 active torsions:
REMARK  status: ('A' for Active; 'I' for Inactive)
ROOT
ATOM      1  N1  IND d   1      -1.424   1.534   0.878  0.00  0.00    -0.196 N 
ATOM      2  C2  IND d   1      -0.447   2.385   0.444  0.00  0.00     0.054 A 
ATOM      3  C3  IND d   1       0.641   1.688   0.046  0.00  0.00    -0.031 A 
ATOM      4  C4  IND d   1       0.998  -0.858  -0.076  0.00  0.00     0.051 A 
ATOM      5  C5  IND d   1       0.403  -2.046   0.246  0.00  0.00    -0.031 A 
ATOM      6  C6  IND d   1      -0.857  -2.102   0.804  0.00  0.00     0.015 A 
ATOM      7  C7  IND d   1      -1.578  -0.969   1.052  0.00  0.00    -0.016 A 
ATOM      8  C8  IND d   1      -0.975   0.240   0.732  0.00  0.00    -0.047 A 
ATOM      9  C9  IND d   1       0.321   0.305   0.205  0.00  0.00    -0.096 A 
ATOM     10  HN1 IND d   1      -2.191   1.767   1.190  0.00  0.00     0.298 HD
ENDROOT
TORSDOF 0
ENDMDL
