MODEL 1
REMARK minimizedAffinity -5.62283134
REMARK minimizedRMSD -1
REMARK  0 active torsions:
REMARK  status: ('A' for Active; 'I' for Inactive)
ROOT
ATOM      1  N1  IND d   1      -0.490   1.119   0.093  0.00  0.00    -0.196 N 
ATOM      2  C2  IND d   1       0.866   0.951   0.074  0.00  0.00     0.054 A 
ATOM      3  C3  IND d   1       1.190  -0.300   0.472  0.00  0.00    -0.031 A 
ATOM      4  C4  IND d   1      -0.349  -2.266   1.102  0.00  0.00     0.051 A 
ATOM      5  C5  IND d   1      -1.662  -2.584   1.303  0.00  0.00    -0.031 A 
ATOM      6  C6  IND d   1      -2.673  -1.666   1.104  0.00  0.00     0.015 A 
ATOM      7  C7  IND d   1      -2.408  -0.393   0.684  0.00  0.00    -0.016 A 
ATOM      8  C8  IND d   1      -1.074  -0.065   0.486  0.00  0.00    -0.047 A 
ATOM      9  C9  IND d   1      -0.041  -0.980   0.727  0.00  0.00    -0.096 A 
ATOM     10  HN1 IND d   1      -0.909   1.843  -0.107  0.00  0.00     0.298 HD
ENDROOT
TORSDOF 0
ENDMDL
