MODEL 1
REMARK minimizedAffinity -4.97687531
REMARK minimizedRMSD -1
REMARK  0 active torsions:
REMARK  status: ('A' for Active; 'I' for Inactive)
ROOT
ATOM      1  N1  IND d   1       0.188  -1.925   0.684  0.00  0.00    -0.196 N 
ATOM      2  C2  IND d   1      -0.931  -2.589   1.106  0.00  0.00     0.054 A 
ATOM      3  C3  IND d   1      -1.909  -1.709   1.419  0.00  0.00    -0.031 A 
ATOM      4  C4  IND d   1      -1.926   0.857   1.220  0.00  0.00     0.051 A 
ATOM      5  C5  IND d   1      -1.121   1.920   0.918  0.00  0.00    -0.031 A 
ATOM      6  C6  IND d   1       0.187   1.751   0.511  0.00  0.00     0.015 A 
ATOM      7  C7  IND d   1       0.737   0.508   0.380  0.00  0.00    -0.016 A 
ATOM      8  C8  IND d   1      -0.075  -0.573   0.693  0.00  0.00    -0.047 A 
ATOM      9  C9  IND d   1      -1.390  -0.407   1.147  0.00  0.00    -0.096 A 
ATOM     10  HN1 IND d   1       0.930  -2.291   0.452  0.00  0.00     0.298 HD
ENDROOT
TORSDOF 0
ENDMDL
