MODEL 1
REMARK minimizedAffinity 5.01641273
REMARK minimizedRMSD -1
REMARK  0 active torsions:
REMARK  status: ('A' for Active; 'I' for Inactive)
ROOT
ATOM      1  C   UNL d   1       3.463   5.850  -4.610  0.00  0.00     0.077 C 
ATOM      2  C1  UNL d   1       1.966   5.878  -4.697  0.00  0.00    -0.074 A 
ATOM      3  C2  UNL d   1       1.316   5.841  -5.935  0.00  0.00    -0.005 A 
ATOM      4  C3  UNL d   1      -0.077   5.859  -5.999  0.00  0.00     0.006 A 
ATOM      5  C4  UNL d   1      -0.834   5.913  -4.828  0.00  0.00    -0.005 A 
ATOM      6  C5  UNL d   1      -0.202   5.949  -3.581  0.00  0.00    -0.074 A 
ATOM      7  C6  UNL d   1      -1.001   5.998  -2.313  0.00  0.00     0.077 C 
ATOM      8  C7  UNL d   1       1.198   5.925  -3.524  0.00  0.00    -0.001 A 
ENDROOT
TORSDOF 0
ENDMDL
