MODEL 1
REMARK minimizedAffinity -0.890753627
REMARK minimizedRMSD -1
REMARK  0 active torsions:
REMARK  status: ('A' for Active; 'I' for Inactive)
ROOT
ATOM      1  C   UNL d   1      -4.822   5.950  -4.452  0.00  0.00     0.077 C 
ATOM      2  C1  UNL d   1      -3.415   5.974  -3.934  0.00  0.00    -0.074 A 
ATOM      3  C2  UNL d   1      -3.155   5.975  -2.559  0.00  0.00    -0.005 A 
ATOM      4  C3  UNL d   1      -1.841   5.988  -2.092  0.00  0.00     0.006 A 
ATOM      5  C4  UNL d   1      -0.775   6.000  -2.993  0.00  0.00    -0.005 A 
ATOM      6  C5  UNL d   1      -1.016   5.998  -4.371  0.00  0.00    -0.074 A 
ATOM      7  C6  UNL d   1       0.119   6.000  -5.352  0.00  0.00     0.077 C 
ATOM      8  C7  UNL d   1      -2.339   5.978  -4.832  0.00  0.00    -0.001 A 
ENDROOT
TORSDOF 0
ENDMDL
