MODEL 1
REMARK minimizedAffinity 0.367896765
REMARK minimizedRMSD -1
REMARK  0 active torsions:
REMARK  status: ('A' for Active; 'I' for Inactive)
ROOT
ATOM      1  C   UNL d   1       0.030   6.000  -2.212  0.00  0.00     0.077 C 
ATOM      2  C1  UNL d   1       0.733   5.968  -3.536  0.00  0.00    -0.074 A 
ATOM      3  C2  UNL d   1       0.012   5.996  -4.734  0.00  0.00    -0.005 A 
ATOM      4  C3  UNL d   1       0.680   5.975  -5.958  0.00  0.00     0.006 A 
ATOM      5  C4  UNL d   1       2.074   5.926  -5.997  0.00  0.00    -0.005 A 
ATOM      6  C5  UNL d   1       2.812   5.898  -4.810  0.00  0.00    -0.074 A 
ATOM      7  C6  UNL d   1       4.311   5.855  -4.834  0.00  0.00     0.077 C 
ATOM      8  C7  UNL d   1       2.134   5.926  -3.584  0.00  0.00    -0.001 A 
ENDROOT
TORSDOF 0
ENDMDL
