MODEL 1
REMARK minimizedAffinity 1.33676887
REMARK minimizedRMSD -1
REMARK  0 active torsions:
REMARK  status: ('A' for Active; 'I' for Inactive)
ROOT
ATOM      1  C   UNL d   1      -1.015   6.000  -1.810  0.00  0.00     0.077 C 
ATOM      2  C1  UNL d   1      -0.616   5.992  -3.256  0.00  0.00    -0.074 A 
ATOM      3  C2  UNL d   1      -1.582   5.997  -4.267  0.00  0.00    -0.005 A 
ATOM      4  C3  UNL d   1      -1.196   6.000  -5.608  0.00  0.00     0.006 A 
ATOM      5  C4  UNL d   1       0.157   5.997  -5.949  0.00  0.00    -0.005 A 
ATOM      6  C5  UNL d   1       1.137   5.993  -4.952  0.00  0.00    -0.074 A 
ATOM      7  C6  UNL d   1       2.595   6.000  -5.302  0.00  0.00     0.077 C 
ATOM      8  C7  UNL d   1       0.741   5.997  -3.607  0.00  0.00    -0.001 A 
ENDROOT
TORSDOF 0
ENDMDL
