MODEL 1
REMARK minimizedAffinity -1.64118493
REMARK minimizedRMSD -1
REMARK  0 active torsions:
REMARK  status: ('A' for Active; 'I' for Inactive)
ROOT
ATOM      1  C   UNL d   1       5.810   2.043  -4.520  0.00  0.00     0.077 C 
ATOM      2  C1  UNL d   1       5.228   3.425  -4.494  0.00  0.00    -0.074 A 
ATOM      3  C2  UNL d   1       5.989   4.517  -4.065  0.00  0.00    -0.005 A 
ATOM      4  C3  UNL d   1       5.438   5.798  -4.055  0.00  0.00     0.006 A 
ATOM      5  C4  UNL d   1       4.122   6.000  -4.473  0.00  0.00    -0.005 A 
ATOM      6  C5  UNL d   1       3.346   4.920  -4.906  0.00  0.00    -0.074 A 
ATOM      7  C6  UNL d   1       1.933   5.120  -5.368  0.00  0.00     0.077 C 
ATOM      8  C7  UNL d   1       3.909   3.637  -4.920  0.00  0.00    -0.001 A 
ENDROOT
TORSDOF 0
ENDMDL
