MODEL 1
REMARK minimizedAffinity 5.80572701
REMARK minimizedRMSD -1
REMARK  0 active torsions:
REMARK  status: ('A' for Active; 'I' for Inactive)
ROOT
ATOM      1  C   UNL d   1      -1.124  -1.428  -4.130  0.00  0.00     0.077 C 
ATOM      2  C1  UNL d   1      -1.486  -0.908  -2.771  0.00  0.00    -0.074 A 
ATOM      3  C2  UNL d   1      -2.799  -0.991  -2.296  0.00  0.00    -0.005 A 
ATOM      4  C3  UNL d   1      -3.119  -0.512  -1.026  0.00  0.00     0.006 A 
ATOM      5  C4  UNL d   1      -2.131   0.054  -0.219  0.00  0.00    -0.005 A 
ATOM      6  C5  UNL d   1      -0.813   0.145  -0.677  0.00  0.00    -0.074 A 
ATOM      7  C6  UNL d   1       0.263   0.741   0.181  0.00  0.00     0.077 C 
ATOM      8  C7  UNL d   1      -0.498  -0.345  -1.952  0.00  0.00    -0.001 A 
ENDROOT
TORSDOF 0
ENDMDL
