MODEL 1
REMARK minimizedAffinity -1.44121611
REMARK minimizedRMSD -1
REMARK  0 active torsions:
REMARK  status: ('A' for Active; 'I' for Inactive)
ROOT
ATOM      1  C   UNL d   1       0.762   6.000  -4.970  0.00  0.00     0.077 C 
ATOM      2  C1  UNL d   1      -0.470   5.992  -4.114  0.00  0.00    -0.074 A 
ATOM      3  C2  UNL d   1      -0.376   5.997  -2.719  0.00  0.00    -0.005 A 
ATOM      4  C3  UNL d   1      -1.530   6.000  -1.936  0.00  0.00     0.006 A 
ATOM      5  C4  UNL d   1      -2.789   5.997  -2.539  0.00  0.00    -0.005 A 
ATOM      6  C5  UNL d   1      -2.902   5.992  -3.933  0.00  0.00    -0.074 A 
ATOM      7  C6  UNL d   1      -4.247   5.999  -4.598  0.00  0.00     0.077 C 
ATOM      8  C7  UNL d   1      -1.738   5.997  -4.713  0.00  0.00    -0.001 A 
ENDROOT
TORSDOF 0
ENDMDL
