MODEL 1
REMARK minimizedAffinity 1.69253433
REMARK minimizedRMSD -1
REMARK  0 active torsions:
REMARK  status: ('A' for Active; 'I' for Inactive)
ROOT
ATOM      1  C   UNL d   1       0.491   5.971  -5.991  0.00  0.00     0.077 C 
ATOM      2  C1  UNL d   1       1.784   5.354  -5.548  0.00  0.00    -0.074 A 
ATOM      3  C2  UNL d   1       1.797   4.198  -4.760  0.00  0.00    -0.005 A 
ATOM      4  C3  UNL d   1       3.007   3.630  -4.364  0.00  0.00     0.006 A 
ATOM      5  C4  UNL d   1       4.216   4.211  -4.750  0.00  0.00    -0.005 A 
ATOM      6  C5  UNL d   1       4.223   5.367  -5.538  0.00  0.00    -0.074 A 
ATOM      7  C6  UNL d   1       5.513   5.998  -5.970  0.00  0.00     0.077 C 
ATOM      8  C7  UNL d   1       3.002   5.927  -5.938  0.00  0.00    -0.001 A 
ENDROOT
TORSDOF 0
ENDMDL
