MODEL 1
REMARK minimizedAffinity 1.88747132
REMARK minimizedRMSD -1
REMARK  0 active torsions:
REMARK  status: ('A' for Active; 'I' for Inactive)
ROOT
ATOM      1  C   UNL d   1      -0.923  -2.862   1.340  0.00  0.00     0.077 C 
ATOM      2  C1  UNL d   1      -1.159  -3.517   2.669  0.00  0.00    -0.074 A 
ATOM      3  C2  UNL d   1      -0.525  -4.718   3.001  0.00  0.00    -0.005 A 
ATOM      4  C3  UNL d   1      -0.747  -5.310   4.244  0.00  0.00     0.006 A 
ATOM      5  C4  UNL d   1      -1.604  -4.708   5.166  0.00  0.00    -0.005 A 
ATOM      6  C5  UNL d   1      -2.246  -3.506   4.852  0.00  0.00    -0.074 A 
ATOM      7  C6  UNL d   1      -3.162  -2.840   5.835  0.00  0.00     0.077 C 
ATOM      8  C7  UNL d   1      -2.013  -2.914   3.603  0.00  0.00    -0.001 A 
ENDROOT
TORSDOF 0
ENDMDL
