MODEL 1
REMARK minimizedAffinity -1.48071992
REMARK minimizedRMSD -1
REMARK  0 active torsions:
REMARK  status: ('A' for Active; 'I' for Inactive)
ROOT
ATOM      1  C   UNL d   1       1.359   5.999  -3.751  0.00  0.00     0.077 C 
ATOM      2  C1  UNL d   1      -0.135   5.887  -3.816  0.00  0.00    -0.074 A 
ATOM      3  C2  UNL d   1      -0.812   5.999  -5.035  0.00  0.00    -0.005 A 
ATOM      4  C3  UNL d   1      -2.201   5.882  -5.081  0.00  0.00     0.006 A 
ATOM      5  C4  UNL d   1      -2.927   5.654  -3.911  0.00  0.00    -0.005 A 
ATOM      6  C5  UNL d   1      -2.267   5.539  -2.683  0.00  0.00    -0.074 A 
ATOM      7  C6  UNL d   1      -3.031   5.283  -1.418  0.00  0.00     0.077 C 
ATOM      8  C7  UNL d   1      -0.871   5.650  -2.646  0.00  0.00    -0.001 A 
ENDROOT
TORSDOF 0
ENDMDL
