MODEL 1
REMARK minimizedAffinity -2.61268258
REMARK minimizedRMSD -1
REMARK  0 active torsions:
REMARK  status: ('A' for Active; 'I' for Inactive)
ROOT
ATOM      1  C   UNL d   1       1.047   5.999  -5.171  0.00  0.00     0.077 C 
ATOM      2  C1  UNL d   1      -0.040   5.992  -4.137  0.00  0.00    -0.074 A 
ATOM      3  C2  UNL d   1       0.267   5.996  -2.772  0.00  0.00    -0.005 A 
ATOM      4  C3  UNL d   1      -0.755   5.998  -1.822  0.00  0.00     0.006 A 
ATOM      5  C4  UNL d   1      -2.090   5.996  -2.226  0.00  0.00    -0.005 A 
ATOM      6  C5  UNL d   1      -2.416   5.992  -3.586  0.00  0.00    -0.074 A 
ATOM      7  C6  UNL d   1      -3.846   6.000  -4.038  0.00  0.00     0.077 C 
ATOM      8  C7  UNL d   1      -1.384   5.997  -4.535  0.00  0.00    -0.001 A 
ENDROOT
TORSDOF 0
ENDMDL
