MODEL 1
REMARK minimizedAffinity -2.334867
REMARK minimizedRMSD -1
REMARK  0 active torsions:
REMARK  status: ('A' for Active; 'I' for Inactive)
ROOT
ATOM      1  C   UNL d   1      -3.540   5.997  -3.121  0.00  0.00     0.077 C 
ATOM      2  C1  UNL d   1      -2.046   5.942  -3.239  0.00  0.00    -0.074 A 
ATOM      3  C2  UNL d   1      -1.233   5.979  -2.102  0.00  0.00    -0.005 A 
ATOM      4  C3  UNL d   1       0.155   5.918  -2.226  0.00  0.00     0.006 A 
ATOM      5  C4  UNL d   1       0.743   5.817  -3.488  0.00  0.00    -0.005 A 
ATOM      6  C5  UNL d   1      -0.054   5.777  -4.636  0.00  0.00    -0.074 A 
ATOM      7  C6  UNL d   1       0.562   5.660  -5.999  0.00  0.00     0.077 C 
ATOM      8  C7  UNL d   1      -1.448   5.833  -4.502  0.00  0.00    -0.001 A 
ENDROOT
TORSDOF 0
ENDMDL
