MODEL 1
REMARK minimizedAffinity 3.78910112
REMARK minimizedRMSD -1
REMARK  0 active torsions:
REMARK  status: ('A' for Active; 'I' for Inactive)
ROOT
ATOM      1  C   UNL d   1       0.947   5.539  -5.999  0.00  0.00     0.077 C 
ATOM      2  C1  UNL d   1       2.286   5.028  -5.558  0.00  0.00    -0.074 A 
ATOM      3  C2  UNL d   1       2.395   3.864  -4.791  0.00  0.00    -0.005 A 
ATOM      4  C3  UNL d   1       3.648   3.395  -4.396  0.00  0.00     0.006 A 
ATOM      5  C4  UNL d   1       4.804   4.085  -4.765  0.00  0.00    -0.005 A 
ATOM      6  C5  UNL d   1       4.715   5.250  -5.533  0.00  0.00    -0.074 A 
ATOM      7  C6  UNL d   1       5.948   5.998  -5.946  0.00  0.00     0.077 C 
ATOM      8  C7  UNL d   1       3.453   5.711  -5.931  0.00  0.00    -0.001 A 
ENDROOT
TORSDOF 0
ENDMDL
