MODEL 1
REMARK minimizedAffinity 2.86892223
REMARK minimizedRMSD -1
REMARK  0 active torsions:
REMARK  status: ('A' for Active; 'I' for Inactive)
ROOT
ATOM      1  C   UNL d   1       5.601   5.998  -5.011  0.00  0.00     0.077 C 
ATOM      2  C1  UNL d   1       4.289   5.271  -5.021  0.00  0.00    -0.074 A 
ATOM      3  C2  UNL d   1       4.199   3.943  -4.591  0.00  0.00    -0.005 A 
ATOM      4  C3  UNL d   1       2.970   3.283  -4.597  0.00  0.00     0.006 A 
ATOM      5  C4  UNL d   1       1.820   3.944  -5.031  0.00  0.00    -0.005 A 
ATOM      6  C5  UNL d   1       1.890   5.272  -5.463  0.00  0.00    -0.074 A 
ATOM      7  C6  UNL d   1       0.662   5.999  -5.924  0.00  0.00     0.077 C 
ATOM      8  C7  UNL d   1       3.128   5.930  -5.448  0.00  0.00    -0.001 A 
ENDROOT
TORSDOF 0
ENDMDL
