MODEL 1
REMARK minimizedAffinity -0.863851428
REMARK minimizedRMSD -1
REMARK  0 active torsions:
REMARK  status: ('A' for Active; 'I' for Inactive)
ROOT
ATOM      1  C   UNL d   1       1.693   4.955  -5.408  0.00  0.00     0.077 C 
ATOM      2  C1  UNL d   1       3.193   4.943  -5.407  0.00  0.00    -0.074 A 
ATOM      3  C2  UNL d   1       3.921   5.985  -5.991  0.00  0.00    -0.005 A 
ATOM      4  C3  UNL d   1       5.315   5.964  -5.974  0.00  0.00     0.006 A 
ATOM      5  C4  UNL d   1       5.995   4.903  -5.374  0.00  0.00    -0.005 A 
ATOM      6  C5  UNL d   1       5.284   3.853  -4.785  0.00  0.00    -0.074 A 
ATOM      7  C6  UNL d   1       6.000   2.710  -4.127  0.00  0.00     0.077 C 
ATOM      8  C7  UNL d   1       3.883   3.884  -4.800  0.00  0.00    -0.001 A 
ENDROOT
TORSDOF 0
ENDMDL
