MODEL 1
REMARK minimizedAffinity 2.9766767
REMARK minimizedRMSD -1
REMARK  0 active torsions:
REMARK  status: ('A' for Active; 'I' for Inactive)
ROOT
ATOM      1  C   UNL d   1      -3.813   5.988  -4.396  0.00  0.00     0.077 C 
ATOM      2  C1  UNL d   1      -2.364   5.998  -4.008  0.00  0.00    -0.074 A 
ATOM      3  C2  UNL d   1      -1.980   5.996  -2.663  0.00  0.00    -0.005 A 
ATOM      4  C3  UNL d   1      -0.629   5.996  -2.317  0.00  0.00     0.006 A 
ATOM      5  C4  UNL d   1       0.350   5.997  -3.311  0.00  0.00    -0.005 A 
ATOM      6  C5  UNL d   1      -0.014   5.997  -4.661  0.00  0.00    -0.074 A 
ATOM      7  C6  UNL d   1       1.026   5.989  -5.742  0.00  0.00     0.077 C 
ATOM      8  C7  UNL d   1      -1.374   5.991  -5.000  0.00  0.00    -0.001 A 
ENDROOT
TORSDOF 0
ENDMDL
