MODEL 1
REMARK minimizedAffinity 10.8452539
REMARK minimizedRMSD -1
REMARK  0 active torsions:
REMARK  status: ('A' for Active; 'I' for Inactive)
ROOT
ATOM      1  C   UNL d   1       2.776   0.913   3.021  0.00  0.00     0.124 A 
ATOM      2  C1  UNL d   1       2.714   1.228   1.671  0.00  0.00     0.062 A 
ATOM      3  C2  UNL d   1       2.229   0.297   0.757  0.00  0.00     0.162 A 
ATOM      4  C3  UNL d   1       1.803  -0.959   1.190  0.00  0.00    -0.034 A 
ATOM      5  C4  UNL d   1       1.870  -1.269   2.549  0.00  0.00     0.162 A 
ATOM      6  C5  UNL d   1       2.355  -0.335   3.459  0.00  0.00     0.062 A 
ATOM      7  F   UNL d   1       2.415  -0.641   4.763  0.00  0.00    -0.097 F 
ATOM      8  F1  UNL d   1       1.468  -2.466   3.000  0.00  0.00    -0.096 F 
ATOM      9  I   UNL d   1       1.078  -2.354  -0.174  0.00  0.00    -0.060 I 
ATOM     10  F2  UNL d   1       2.180   0.628  -0.542  0.00  0.00    -0.096 F 
ATOM     11  F3  UNL d   1       3.121   2.432   1.245  0.00  0.00    -0.097 F 
ATOM     12  F4  UNL d   1       3.244   1.810   3.899  0.00  0.00    -0.092 F 
ENDROOT
TORSDOF 0
ENDMDL
