MODEL 1
REMARK minimizedAffinity 8.38898659
REMARK minimizedRMSD -1
REMARK  0 active torsions:
REMARK  status: ('A' for Active; 'I' for Inactive)
ROOT
ATOM      1  C   UNL d   1       2.320  -0.088   1.516  0.00  0.00     0.124 A 
ATOM      2  C1  UNL d   1       2.468  -0.004   0.138  0.00  0.00     0.062 A 
ATOM      3  C2  UNL d   1       2.291  -1.134  -0.655  0.00  0.00     0.162 A 
ATOM      4  C3  UNL d   1       1.962  -2.358  -0.074  0.00  0.00    -0.034 A 
ATOM      5  C4  UNL d   1       1.815  -2.435   1.312  0.00  0.00     0.162 A 
ATOM      6  C5  UNL d   1       1.994  -1.303   2.101  0.00  0.00     0.062 A 
ATOM      7  F   UNL d   1       1.850  -1.387   3.432  0.00  0.00    -0.097 F 
ATOM      8  F1  UNL d   1       1.500  -3.597   1.905  0.00  0.00    -0.096 F 
ATOM      9  I   UNL d   1       1.696  -4.049  -1.257  0.00  0.00    -0.060 I 
ATOM     10  F2  UNL d   1       2.441  -1.023  -1.984  0.00  0.00    -0.096 F 
ATOM     11  F3  UNL d   1       2.784   1.169  -0.430  0.00  0.00    -0.097 F 
ATOM     12  F4  UNL d   1       2.492   1.000   2.277  0.00  0.00    -0.092 F 
ENDROOT
TORSDOF 0
ENDMDL
