MODEL 1
REMARK minimizedAffinity 25.775816
REMARK minimizedRMSD -1
REMARK  0 active torsions:
REMARK  status: ('A' for Active; 'I' for Inactive)
ROOT
ATOM      1  C   UNL d   1       3.070   1.076   1.812  0.00  0.00     0.124 A 
ATOM      2  C1  UNL d   1       3.333   1.122   0.450  0.00  0.00     0.062 A 
ATOM      3  C2  UNL d   1       2.690   2.057  -0.356  0.00  0.00     0.162 A 
ATOM      4  C3  UNL d   1       1.779   2.956   0.199  0.00  0.00    -0.034 A 
ATOM      5  C4  UNL d   1       1.519   2.903   1.570  0.00  0.00     0.162 A 
ATOM      6  C5  UNL d   1       2.164   1.966   2.370  0.00  0.00     0.062 A 
ATOM      7  F   UNL d   1       1.909   1.923   3.686  0.00  0.00    -0.097 F 
ATOM      8  F1  UNL d   1       0.649   3.752   2.136  0.00  0.00    -0.096 F 
ATOM      9  I   UNL d   1       0.816   4.357  -1.002  0.00  0.00    -0.060 I 
ATOM     10  F2  UNL d   1       2.963   2.079  -1.669  0.00  0.00    -0.096 F 
ATOM     11  F3  UNL d   1       4.207   0.262  -0.092  0.00  0.00    -0.097 F 
ATOM     12  F4  UNL d   1       3.689   0.174   2.585  0.00  0.00    -0.092 F 
ENDROOT
TORSDOF 0
ENDMDL
