MODEL 1
REMARK minimizedAffinity 15.9269238
REMARK minimizedRMSD -1
REMARK  0 active torsions:
REMARK  status: ('A' for Active; 'I' for Inactive)
ROOT
ATOM      1  C   UNL d   1      -1.384  -1.729  -1.001  0.00  0.00     0.124 A 
ATOM      2  C1  UNL d   1      -0.283  -2.078  -1.771  0.00  0.00     0.062 A 
ATOM      3  C2  UNL d   1       0.999  -1.725  -1.359  0.00  0.00     0.162 A 
ATOM      4  C3  UNL d   1       1.187  -1.018  -0.171  0.00  0.00    -0.034 A 
ATOM      5  C4  UNL d   1       0.075  -0.670   0.597  0.00  0.00     0.162 A 
ATOM      6  C5  UNL d   1      -1.204  -1.026   0.181  0.00  0.00     0.062 A 
ATOM      7  F   UNL d   1      -2.267  -0.687   0.926  0.00  0.00    -0.097 F 
ATOM      8  F1  UNL d   1       0.220   0.009   1.744  0.00  0.00    -0.096 F 
ATOM      9  I   UNL d   1       3.102  -0.488   0.447  0.00  0.00    -0.060 I 
ATOM     10  F2  UNL d   1       2.045  -2.075  -2.123  0.00  0.00    -0.096 F 
ATOM     11  F3  UNL d   1      -0.454  -2.757  -2.914  0.00  0.00    -0.097 F 
ATOM     12  F4  UNL d   1      -2.616  -2.070  -1.400  0.00  0.00    -0.092 F 
ENDROOT
TORSDOF 0
ENDMDL
