MODEL 1
REMARK minimizedAffinity 14.4977474
REMARK minimizedRMSD -1
REMARK  0 active torsions:
REMARK  status: ('A' for Active; 'I' for Inactive)
ROOT
ATOM      1  C   UNL d   1       1.890  -1.017   3.987  0.00  0.00     0.124 A 
ATOM      2  C1  UNL d   1       1.784   0.085   3.150  0.00  0.00     0.062 A 
ATOM      3  C2  UNL d   1       1.383  -0.077   1.827  0.00  0.00     0.162 A 
ATOM      4  C3  UNL d   1       1.086  -1.347   1.332  0.00  0.00    -0.034 A 
ATOM      5  C4  UNL d   1       1.197  -2.451   2.180  0.00  0.00     0.162 A 
ATOM      6  C5  UNL d   1       1.597  -2.283   3.502  0.00  0.00     0.062 A 
ATOM      7  F   UNL d   1       1.700  -3.349   4.309  0.00  0.00    -0.097 F 
ATOM      8  F1  UNL d   1       0.918  -3.686   1.737  0.00  0.00    -0.096 F 
ATOM      9  I   UNL d   1       0.487  -1.594  -0.645  0.00  0.00    -0.060 I 
ATOM     10  F2  UNL d   1       1.289   1.005   1.041  0.00  0.00    -0.096 F 
ATOM     11  F3  UNL d   1       2.067   1.310   3.617  0.00  0.00    -0.097 F 
ATOM     12  F4  UNL d   1       2.277  -0.858   5.260  0.00  0.00    -0.092 F 
ENDROOT
TORSDOF 0
ENDMDL
