MODEL 1
REMARK minimizedAffinity 11.5601225
REMARK minimizedRMSD -1
REMARK  0 active torsions:
REMARK  status: ('A' for Active; 'I' for Inactive)
ROOT
ATOM      1  C   UNL d   1       0.562  -1.623  -0.468  0.00  0.00     0.124 A 
ATOM      2  C1  UNL d   1       0.804  -0.887   0.684  0.00  0.00     0.062 A 
ATOM      3  C2  UNL d   1      -0.162  -0.011   1.170  0.00  0.00     0.162 A 
ATOM      4  C3  UNL d   1      -1.380   0.133   0.506  0.00  0.00    -0.034 A 
ATOM      5  C4  UNL d   1      -1.616  -0.611  -0.652  0.00  0.00     0.162 A 
ATOM      6  C5  UNL d   1      -0.647  -1.485  -1.134  0.00  0.00     0.062 A 
ATOM      7  F   UNL d   1      -0.883  -2.196  -2.246  0.00  0.00    -0.097 F 
ATOM      8  F1  UNL d   1      -2.776  -0.497  -1.315  0.00  0.00    -0.096 F 
ATOM      9  I   UNL d   1      -2.827   1.442   1.230  0.00  0.00    -0.060 I 
ATOM     10  F2  UNL d   1       0.099   0.688   2.285  0.00  0.00    -0.096 F 
ATOM     11  F3  UNL d   1       1.972  -1.018   1.329  0.00  0.00    -0.097 F 
ATOM     12  F4  UNL d   1       1.494  -2.465  -0.934  0.00  0.00    -0.092 F 
ENDROOT
TORSDOF 0
ENDMDL
