MODEL 1
REMARK minimizedAffinity 9.17181015
REMARK minimizedRMSD -1
REMARK  0 active torsions:
REMARK  status: ('A' for Active; 'I' for Inactive)
ROOT
ATOM      1  C   UNL d   1       2.016   0.659   1.487  0.00  0.00     0.124 A 
ATOM      2  C1  UNL d   1       1.496  -0.622   1.616  0.00  0.00     0.062 A 
ATOM      3  C2  UNL d   1       1.495  -1.489   0.527  0.00  0.00     0.162 A 
ATOM      4  C3  UNL d   1       2.017  -1.079  -0.700  0.00  0.00    -0.034 A 
ATOM      5  C4  UNL d   1       2.537   0.211  -0.822  0.00  0.00     0.162 A 
ATOM      6  C5  UNL d   1       2.536   1.074   0.269  0.00  0.00     0.062 A 
ATOM      7  F   UNL d   1       3.038   2.311   0.144  0.00  0.00    -0.097 F 
ATOM      8  F1  UNL d   1       3.046   0.638  -1.987  0.00  0.00    -0.096 F 
ATOM      9  I   UNL d   1       2.017  -2.372  -2.330  0.00  0.00    -0.060 I 
ATOM     10  F2  UNL d   1       0.986  -2.721   0.679  0.00  0.00    -0.096 F 
ATOM     11  F3  UNL d   1       0.992  -1.025   2.791  0.00  0.00    -0.097 F 
ATOM     12  F4  UNL d   1       2.015   1.492   2.536  0.00  0.00    -0.092 F 
ENDROOT
TORSDOF 0
ENDMDL
