MODEL 1
REMARK minimizedAffinity 9.64877033
REMARK minimizedRMSD -1
REMARK  0 active torsions:
REMARK  status: ('A' for Active; 'I' for Inactive)
ROOT
ATOM      1  C   UNL d   1       2.664   0.682   2.572  0.00  0.00     0.124 A 
ATOM      2  C1  UNL d   1       2.071  -0.487   3.029  0.00  0.00     0.062 A 
ATOM      3  C2  UNL d   1       1.761  -1.509   2.137  0.00  0.00     0.162 A 
ATOM      4  C3  UNL d   1       2.043  -1.367   0.778  0.00  0.00    -0.034 A 
ATOM      5  C4  UNL d   1       2.639  -0.188   0.326  0.00  0.00     0.162 A 
ATOM      6  C5  UNL d   1       2.947   0.830   1.222  0.00  0.00     0.062 A 
ATOM      7  F   UNL d   1       3.519   1.959   0.779  0.00  0.00    -0.097 F 
ATOM      8  F1  UNL d   1       2.924  -0.019  -0.973  0.00  0.00    -0.096 F 
ATOM      9  I   UNL d   1       1.580  -2.893  -0.559  0.00  0.00    -0.060 I 
ATOM     10  F2  UNL d   1       1.189  -2.628   2.606  0.00  0.00    -0.096 F 
ATOM     11  F3  UNL d   1       1.796  -0.633   4.333  0.00  0.00    -0.097 F 
ATOM     12  F4  UNL d   1       2.961   1.664   3.433  0.00  0.00    -0.092 F 
ENDROOT
TORSDOF 0
ENDMDL
