MODEL 1
REMARK minimizedAffinity 11.8965397
REMARK minimizedRMSD -1
REMARK  0 active torsions:
REMARK  status: ('A' for Active; 'I' for Inactive)
ROOT
ATOM      1  C   UNL d   1      -1.705  -2.391  -2.035  0.00  0.00     0.124 A 
ATOM      2  C1  UNL d   1      -2.212  -1.669  -0.964  0.00  0.00     0.062 A 
ATOM      3  C2  UNL d   1      -1.348  -1.037  -0.074  0.00  0.00     0.162 A 
ATOM      4  C3  UNL d   1       0.033  -1.125  -0.252  0.00  0.00    -0.034 A 
ATOM      5  C4  UNL d   1       0.535  -1.854  -1.331  0.00  0.00     0.162 A 
ATOM      6  C5  UNL d   1      -0.333  -2.483  -2.218  0.00  0.00     0.062 A 
ATOM      7  F   UNL d   1       0.159  -3.181  -3.252  0.00  0.00    -0.097 F 
ATOM      8  F1  UNL d   1       1.857  -1.959  -1.531  0.00  0.00    -0.096 F 
ATOM      9  I   UNL d   1       1.328  -0.182   1.077  0.00  0.00    -0.060 I 
ATOM     10  F2  UNL d   1      -1.866  -0.346   0.952  0.00  0.00    -0.096 F 
ATOM     11  F3  UNL d   1      -3.538  -1.579  -0.785  0.00  0.00    -0.097 F 
ATOM     12  F4  UNL d   1      -2.539  -2.999  -2.889  0.00  0.00    -0.092 F 
ENDROOT
TORSDOF 0
ENDMDL
