MODEL 1
REMARK minimizedAffinity -1.66123521
REMARK minimizedRMSD -1
REMARK  0 active torsions:
REMARK  status: ('A' for Active; 'I' for Inactive)
ROOT
ATOM      1  C   UNL d   1      -0.675  -0.214   1.887  0.00  0.00     0.124 A 
ATOM      2  C1  UNL d   1      -1.423  -0.238   0.719  0.00  0.00     0.062 A 
ATOM      3  C2  UNL d   1      -0.788  -0.230  -0.520  0.00  0.00     0.162 A 
ATOM      4  C3  UNL d   1       0.604  -0.200  -0.596  0.00  0.00    -0.034 A 
ATOM      5  C4  UNL d   1       1.350  -0.175   0.584  0.00  0.00     0.162 A 
ATOM      6  C5  UNL d   1       0.711  -0.183   1.819  0.00  0.00     0.062 A 
ATOM      7  F   UNL d   1       1.436  -0.159   2.947  0.00  0.00    -0.097 F 
ATOM      8  F1  UNL d   1       2.691  -0.145   0.546  0.00  0.00    -0.096 F 
ATOM      9  I   UNL d   1       1.558  -0.188  -2.446  0.00  0.00    -0.060 I 
ATOM     10  F2  UNL d   1      -1.536  -0.254  -1.633  0.00  0.00    -0.096 F 
ATOM     11  F3  UNL d   1      -2.762  -0.268   0.782  0.00  0.00    -0.097 F 
ATOM     12  F4  UNL d   1      -1.289  -0.221   3.078  0.00  0.00    -0.092 F 
ENDROOT
TORSDOF 0
ENDMDL
