MODEL 1
REMARK minimizedAffinity 2.34267044
REMARK minimizedRMSD -1
REMARK  0 active torsions:
REMARK  status: ('A' for Active; 'I' for Inactive)
ROOT
ATOM      1  C   UNL d   1      -0.670   0.604   1.703  0.00  0.00     0.124 A 
ATOM      2  C1  UNL d   1      -1.488   0.756   0.592  0.00  0.00     0.062 A 
ATOM      3  C2  UNL d   1      -1.119   0.201  -0.630  0.00  0.00     0.162 A 
ATOM      4  C3  UNL d   1       0.073  -0.514  -0.748  0.00  0.00    -0.034 A 
ATOM      5  C4  UNL d   1       0.891  -0.661   0.374  0.00  0.00     0.162 A 
ATOM      6  C5  UNL d   1       0.519  -0.104   1.593  0.00  0.00     0.062 A 
ATOM      7  F   UNL d   1       1.310  -0.252   2.665  0.00  0.00    -0.097 F 
ATOM      8  F1  UNL d   1       2.044  -1.342   0.296  0.00  0.00    -0.096 F 
ATOM      9  I   UNL d   1       0.627  -1.346  -2.573  0.00  0.00    -0.060 I 
ATOM     10  F2  UNL d   1      -1.929   0.363  -1.687  0.00  0.00    -0.096 F 
ATOM     11  F3  UNL d   1      -2.636   1.441   0.695  0.00  0.00    -0.097 F 
ATOM     12  F4  UNL d   1      -1.026   1.141   2.877  0.00  0.00    -0.092 F 
ENDROOT
TORSDOF 0
ENDMDL
