MODEL 1
REMARK minimizedAffinity -2.15223169
REMARK minimizedRMSD -1
REMARK  0 active torsions:
REMARK  status: ('A' for Active; 'I' for Inactive)
ROOT
ATOM      1  C   UNL d   1       0.252  -0.156  -1.853  0.00  0.00     0.124 A 
ATOM      2  C1  UNL d   1       1.077  -1.024  -1.151  0.00  0.00     0.062 A 
ATOM      3  C2  UNL d   1       0.893  -1.213   0.216  0.00  0.00     0.162 A 
ATOM      4  C3  UNL d   1      -0.123  -0.534   0.890  0.00  0.00    -0.034 A 
ATOM      5  C4  UNL d   1      -0.948   0.338   0.177  0.00  0.00     0.162 A 
ATOM      6  C5  UNL d   1      -0.759   0.523  -1.189  0.00  0.00     0.062 A 
ATOM      7  F   UNL d   1      -1.558   1.362  -1.866  0.00  0.00    -0.097 F 
ATOM      8  F1  UNL d   1      -1.934   1.006   0.793  0.00  0.00    -0.096 F 
ATOM      9  I   UNL d   1      -0.402  -0.814   2.933  0.00  0.00    -0.060 I 
ATOM     10  F2  UNL d   1       1.705  -2.057   0.869  0.00  0.00    -0.096 F 
ATOM     11  F3  UNL d   1       2.056  -1.681  -1.790  0.00  0.00    -0.097 F 
ATOM     12  F4  UNL d   1       0.432   0.025  -3.168  0.00  0.00    -0.092 F 
ENDROOT
TORSDOF 0
ENDMDL
