MODEL 1
REMARK minimizedAffinity 1.54848099
REMARK minimizedRMSD -1
REMARK  0 active torsions:
REMARK  status: ('A' for Active; 'I' for Inactive)
ROOT
ATOM      1  C   UNL d   1       0.986  -0.225   2.392  0.00  0.00     0.124 A 
ATOM      2  C1  UNL d   1       1.767   0.011   1.269  0.00  0.00     0.062 A 
ATOM      3  C2  UNL d   1       1.215  -0.107  -0.004  0.00  0.00     0.162 A 
ATOM      4  C3  UNL d   1      -0.124  -0.461  -0.161  0.00  0.00    -0.034 A 
ATOM      5  C4  UNL d   1      -0.903  -0.698   0.974  0.00  0.00     0.162 A 
ATOM      6  C5  UNL d   1      -0.347  -0.580   2.244  0.00  0.00     0.062 A 
ATOM      7  F   UNL d   1      -1.103  -0.808   3.328  0.00  0.00    -0.097 F 
ATOM      8  F1  UNL d   1      -2.194  -1.041   0.860  0.00  0.00    -0.096 F 
ATOM      9  I   UNL d   1      -0.952  -0.638  -2.062  0.00  0.00    -0.060 I 
ATOM     10  F2  UNL d   1       1.993   0.128  -1.072  0.00  0.00    -0.096 F 
ATOM     11  F3  UNL d   1       3.056   0.352   1.409  0.00  0.00    -0.097 F 
ATOM     12  F4  UNL d   1       1.520  -0.113   3.615  0.00  0.00    -0.092 F 
ENDROOT
TORSDOF 0
ENDMDL
