MODEL 1
REMARK minimizedAffinity 3.70375037
REMARK minimizedRMSD -1
REMARK  0 active torsions:
REMARK  status: ('A' for Active; 'I' for Inactive)
ROOT
ATOM      1  C   UNL d   1      -1.517  -0.507   1.990  0.00  0.00     0.124 A 
ATOM      2  C1  UNL d   1      -2.155  -0.175   0.803  0.00  0.00     0.062 A 
ATOM      3  C2  UNL d   1      -1.411   0.076  -0.346  0.00  0.00     0.162 A 
ATOM      4  C3  UNL d   1      -0.018  -0.005  -0.313  0.00  0.00    -0.034 A 
ATOM      5  C4  UNL d   1       0.617  -0.338   0.884  0.00  0.00     0.162 A 
ATOM      6  C5  UNL d   1      -0.132  -0.589   2.030  0.00  0.00     0.062 A 
ATOM      7  F   UNL d   1       0.486  -0.910   3.175  0.00  0.00    -0.097 F 
ATOM      8  F1  UNL d   1       1.953  -0.425   0.950  0.00  0.00    -0.096 F 
ATOM      9  I   UNL d   1       1.099   0.371  -2.029  0.00  0.00    -0.060 I 
ATOM     10  F2  UNL d   1      -2.054   0.395  -1.479  0.00  0.00    -0.096 F 
ATOM     11  F3  UNL d   1      -3.493  -0.095   0.763  0.00  0.00    -0.097 F 
ATOM     12  F4  UNL d   1      -2.236  -0.748   3.094  0.00  0.00    -0.092 F 
ENDROOT
TORSDOF 0
ENDMDL
