MODEL 1
REMARK minimizedAffinity -3.54369831
REMARK minimizedRMSD -1
REMARK  0 active torsions:
REMARK  status: ('A' for Active; 'I' for Inactive)
ROOT
ATOM      1  C   UNL d   1      -0.988  -0.033   1.892  0.00  0.00     0.124 A 
ATOM      2  C1  UNL d   1       0.370  -0.321   1.909  0.00  0.00     0.062 A 
ATOM      3  C2  UNL d   1       1.090  -0.372   0.719  0.00  0.00     0.162 A 
ATOM      4  C3  UNL d   1       0.453  -0.134  -0.499  0.00  0.00    -0.034 A 
ATOM      5  C4  UNL d   1      -0.912   0.155  -0.508  0.00  0.00     0.162 A 
ATOM      6  C5  UNL d   1      -1.627   0.205   0.684  0.00  0.00     0.062 A 
ATOM      7  F   UNL d   1      -2.939   0.483   0.665  0.00  0.00    -0.097 F 
ATOM      8  F1  UNL d   1      -1.556   0.389  -1.662  0.00  0.00    -0.096 F 
ATOM      9  I   UNL d   1       1.526  -0.210  -2.281  0.00  0.00    -0.060 I 
ATOM     10  F2  UNL d   1       2.401  -0.653   0.766  0.00  0.00    -0.096 F 
ATOM     11  F3  UNL d   1       0.990  -0.552   3.075  0.00  0.00    -0.097 F 
ATOM     12  F4  UNL d   1      -1.678   0.015   3.039  0.00  0.00    -0.092 F 
ENDROOT
TORSDOF 0
ENDMDL
