MODEL 1
REMARK minimizedAffinity -0.474770278
REMARK minimizedRMSD -1
REMARK  0 active torsions:
REMARK  status: ('A' for Active; 'I' for Inactive)
ROOT
ATOM      1  C   UNL d   1      -1.555   0.185   3.022  0.00  0.00     0.124 A 
ATOM      2  C1  UNL d   1      -2.418  -0.063   1.964  0.00  0.00     0.062 A 
ATOM      3  C2  UNL d   1      -1.939  -0.074   0.657  0.00  0.00     0.162 A 
ATOM      4  C3  UNL d   1      -0.589   0.163   0.401  0.00  0.00    -0.034 A 
ATOM      5  C4  UNL d   1       0.273   0.413   1.471  0.00  0.00     0.162 A 
ATOM      6  C5  UNL d   1      -0.211   0.423   2.775  0.00  0.00     0.062 A 
ATOM      7  F   UNL d   1       0.625   0.663   3.796  0.00  0.00    -0.097 F 
ATOM      8  F1  UNL d   1       1.577   0.645   1.260  0.00  0.00    -0.096 F 
ATOM      9  I   UNL d   1       0.132   0.147  -1.551  0.00  0.00    -0.060 I 
ATOM     10  F2  UNL d   1      -2.796  -0.317  -0.346  0.00  0.00    -0.096 F 
ATOM     11  F3  UNL d   1      -3.718  -0.292   2.201  0.00  0.00    -0.097 F 
ATOM     12  F4  UNL d   1      -2.019   0.196   4.278  0.00  0.00    -0.092 F 
ENDROOT
TORSDOF 0
ENDMDL
