MODEL 1
REMARK minimizedAffinity -3.32200098
REMARK minimizedRMSD -1
REMARK  0 active torsions:
REMARK  status: ('A' for Active; 'I' for Inactive)
ROOT
ATOM      1  C   UNL d   1      -1.055   0.088   3.236  0.00  0.00     0.124 A 
ATOM      2  C1  UNL d   1      -2.004  -0.128   2.246  0.00  0.00     0.062 A 
ATOM      3  C2  UNL d   1      -1.639  -0.076   0.904  0.00  0.00     0.162 A 
ATOM      4  C3  UNL d   1      -0.319   0.191   0.543  0.00  0.00    -0.034 A 
ATOM      5  C4  UNL d   1       0.630   0.408   1.544  0.00  0.00     0.162 A 
ATOM      6  C5  UNL d   1       0.261   0.355   2.884  0.00  0.00     0.062 A 
ATOM      7  F   UNL d   1       1.179   0.564   3.839  0.00  0.00    -0.097 F 
ATOM      8  F1  UNL d   1       1.908   0.667   1.232  0.00  0.00    -0.096 F 
ATOM      9  I   UNL d   1       0.230   0.268  -1.463  0.00  0.00    -0.060 I 
ATOM     10  F2  UNL d   1      -2.577  -0.289  -0.031  0.00  0.00    -0.096 F 
ATOM     11  F3  UNL d   1      -3.276  -0.385   2.583  0.00  0.00    -0.097 F 
ATOM     12  F4  UNL d   1      -1.408   0.039   4.527  0.00  0.00    -0.092 F 
ENDROOT
TORSDOF 0
ENDMDL
