MODEL 1
REMARK minimizedAffinity -0.991095364
REMARK minimizedRMSD -1
REMARK  0 active torsions:
REMARK  status: ('A' for Active; 'I' for Inactive)
ROOT
ATOM      1  C   UNL d   1      -1.719  -0.481   1.079  0.00  0.00     0.124 A 
ATOM      2  C1  UNL d   1      -2.076   0.256  -0.042  0.00  0.00     0.062 A 
ATOM      3  C2  UNL d   1      -1.162   0.449  -1.073  0.00  0.00     0.162 A 
ATOM      4  C3  UNL d   1       0.120  -0.095  -0.989  0.00  0.00    -0.034 A 
ATOM      5  C4  UNL d   1       0.472  -0.834   0.142  0.00  0.00     0.162 A 
ATOM      6  C5  UNL d   1      -0.445  -1.024   1.170  0.00  0.00     0.062 A 
ATOM      7  F   UNL d   1      -0.098  -1.736   2.252  0.00  0.00    -0.097 F 
ATOM      8  F1  UNL d   1       1.696  -1.371   0.256  0.00  0.00    -0.096 F 
ATOM      9  I   UNL d   1       1.490   0.192  -2.529  0.00  0.00    -0.060 I 
ATOM     10  F2  UNL d   1      -1.534   1.165  -2.145  0.00  0.00    -0.096 F 
ATOM     11  F3  UNL d   1      -3.306   0.783  -0.132  0.00  0.00    -0.097 F 
ATOM     12  F4  UNL d   1      -2.601  -0.665   2.070  0.00  0.00    -0.092 F 
ENDROOT
TORSDOF 0
ENDMDL
