MODEL 1
REMARK minimizedAffinity 2.55878663
REMARK minimizedRMSD -1
REMARK  0 active torsions:
REMARK  status: ('A' for Active; 'I' for Inactive)
ROOT
ATOM      1  C   UNL d   1      -0.546   0.862  -1.961  0.00  0.00     0.124 A 
ATOM      2  C1  UNL d   1       0.614   0.456  -1.315  0.00  0.00     0.062 A 
ATOM      3  C2  UNL d   1       0.566   0.033   0.010  0.00  0.00     0.162 A 
ATOM      4  C3  UNL d   1      -0.648   0.012   0.699  0.00  0.00    -0.034 A 
ATOM      5  C4  UNL d   1      -1.810   0.422   0.042  0.00  0.00     0.162 A 
ATOM      6  C5  UNL d   1      -1.756   0.844  -1.282  0.00  0.00     0.062 A 
ATOM      7  F   UNL d   1      -2.877   1.235  -1.904  0.00  0.00    -0.097 F 
ATOM      8  F1  UNL d   1      -2.993   0.414   0.674  0.00  0.00    -0.096 F 
ATOM      9  I   UNL d   1      -0.724  -0.621   2.680  0.00  0.00    -0.060 I 
ATOM     10  F2  UNL d   1       1.702  -0.353   0.610  0.00  0.00    -0.096 F 
ATOM     11  F3  UNL d   1       1.785   0.473  -1.968  0.00  0.00    -0.097 F 
ATOM     12  F4  UNL d   1      -0.496   1.269  -3.235  0.00  0.00    -0.092 F 
ENDROOT
TORSDOF 0
ENDMDL
