MODEL 1
REMARK minimizedAffinity 2.44424033
REMARK minimizedRMSD -1
REMARK  0 active torsions:
REMARK  status: ('A' for Active; 'I' for Inactive)
ROOT
ATOM      1  C   UNL d   1       0.041   0.180   1.075  0.00  0.00     0.124 A 
ATOM      2  C1  UNL d   1       0.817   0.789   0.099  0.00  0.00     0.062 A 
ATOM      3  C2  UNL d   1       0.884   0.248  -1.181  0.00  0.00     0.162 A 
ATOM      4  C3  UNL d   1       0.171  -0.910  -1.494  0.00  0.00    -0.034 A 
ATOM      5  C4  UNL d   1      -0.606  -1.518  -0.506  0.00  0.00     0.162 A 
ATOM      6  C5  UNL d   1      -0.669  -0.973   0.772  0.00  0.00     0.062 A 
ATOM      7  F   UNL d   1      -1.420  -1.563   1.714  0.00  0.00    -0.097 F 
ATOM      8  F1  UNL d   1      -1.304  -2.632  -0.772  0.00  0.00    -0.096 F 
ATOM      9  I   UNL d   1       0.268  -1.723  -3.407  0.00  0.00    -0.060 I 
ATOM     10  F2  UNL d   1       1.642   0.857  -2.105  0.00  0.00    -0.096 F 
ATOM     11  F3  UNL d   1       1.506   1.902   0.390  0.00  0.00    -0.097 F 
ATOM     12  F4  UNL d   1      -0.020   0.703   2.307  0.00  0.00    -0.092 F 
ENDROOT
TORSDOF 0
ENDMDL
