MODEL 1
REMARK minimizedAffinity -0.869104266
REMARK minimizedRMSD -1
REMARK  0 active torsions:
REMARK  status: ('A' for Active; 'I' for Inactive)
ROOT
ATOM      1  C   UNL d   1       0.396   0.462   1.037  0.00  0.00     0.124 A 
ATOM      2  C1  UNL d   1      -0.371  -0.651   0.724  0.00  0.00     0.062 A 
ATOM      3  C2  UNL d   1      -0.322  -1.199  -0.554  0.00  0.00     0.162 A 
ATOM      4  C3  UNL d   1       0.499  -0.635  -1.531  0.00  0.00    -0.034 A 
ATOM      5  C4  UNL d   1       1.268   0.485  -1.209  0.00  0.00     0.162 A 
ATOM      6  C5  UNL d   1       1.215   1.029   0.070  0.00  0.00     0.062 A 
ATOM      7  F   UNL d   1       1.957   2.105   0.370  0.00  0.00    -0.097 F 
ATOM      8  F1  UNL d   1       2.068   1.053  -2.124  0.00  0.00    -0.096 F 
ATOM      9  I   UNL d   1       0.576  -1.451  -3.443  0.00  0.00    -0.060 I 
ATOM     10  F2  UNL d   1      -1.074  -2.275  -0.828  0.00  0.00    -0.096 F 
ATOM     11  F3  UNL d   1      -1.164  -1.200   1.656  0.00  0.00    -0.097 F 
ATOM     12  F4  UNL d   1       0.346   0.988   2.267  0.00  0.00    -0.092 F 
ENDROOT
TORSDOF 0
ENDMDL
