MODEL 1
REMARK minimizedAffinity 1.38681054
REMARK minimizedRMSD -1
REMARK  0 active torsions:
REMARK  status: ('A' for Active; 'I' for Inactive)
ROOT
ATOM      1  C   UNL d   1      -0.626  -0.037   2.255  0.00  0.00     0.124 A 
ATOM      2  C1  UNL d   1      -1.340  -0.488   1.153  0.00  0.00     0.062 A 
ATOM      3  C2  UNL d   1      -0.758  -0.478  -0.111  0.00  0.00     0.162 A 
ATOM      4  C3  UNL d   1       0.548  -0.017  -0.280  0.00  0.00    -0.034 A 
ATOM      5  C4  UNL d   1       1.260   0.435   0.832  0.00  0.00     0.162 A 
ATOM      6  C5  UNL d   1       0.673   0.424   2.093  0.00  0.00     0.062 A 
ATOM      7  F   UNL d   1       1.365   0.859   3.156  0.00  0.00    -0.097 F 
ATOM      8  F1  UNL d   1       2.517   0.885   0.705  0.00  0.00    -0.096 F 
ATOM      9  I   UNL d   1       1.423  -0.000  -2.169  0.00  0.00    -0.060 I 
ATOM     10  F2  UNL d   1      -1.471  -0.919  -1.157  0.00  0.00    -0.096 F 
ATOM     11  F3  UNL d   1      -2.596  -0.932   1.307  0.00  0.00    -0.097 F 
ATOM     12  F4  UNL d   1      -1.189  -0.047   3.470  0.00  0.00    -0.092 F 
ENDROOT
TORSDOF 0
ENDMDL
