MODEL 1
REMARK minimizedAffinity 0.30613175
REMARK minimizedRMSD -1
REMARK  0 active torsions:
REMARK  status: ('A' for Active; 'I' for Inactive)
ROOT
ATOM      1  C   UNL d   1       0.155   0.442  -0.705  0.00  0.00     0.124 A 
ATOM      2  C1  UNL d   1      -1.222   0.358  -0.558  0.00  0.00     0.062 A 
ATOM      3  C2  UNL d   1      -1.777   0.082   0.689  0.00  0.00     0.162 A 
ATOM      4  C3  UNL d   1      -0.955  -0.111   1.798  0.00  0.00    -0.034 A 
ATOM      5  C4  UNL d   1       0.430  -0.025   1.642  0.00  0.00     0.162 A 
ATOM      6  C5  UNL d   1       0.980   0.251   0.395  0.00  0.00     0.062 A 
ATOM      7  F   UNL d   1       2.311   0.332   0.254  0.00  0.00    -0.097 F 
ATOM      8  F1  UNL d   1       1.250  -0.205   2.688  0.00  0.00    -0.096 F 
ATOM      9  I   UNL d   1      -1.781  -0.523   3.664  0.00  0.00    -0.060 I 
ATOM     10  F2  UNL d   1      -3.112   0.006   0.802  0.00  0.00    -0.096 F 
ATOM     11  F3  UNL d   1      -2.021   0.541  -1.619  0.00  0.00    -0.097 F 
ATOM     12  F4  UNL d   1       0.687   0.706  -1.906  0.00  0.00    -0.092 F 
ENDROOT
TORSDOF 0
ENDMDL
