MODEL 1
REMARK minimizedAffinity -4.94688034
REMARK minimizedRMSD -1
REMARK  0 active torsions:
REMARK  status: ('A' for Active; 'I' for Inactive)
ROOT
ATOM      1  C   UNL d   1      -0.109  -4.142  -0.426  0.00  0.00     0.078 C 
ATOM      2  C1  UNL d   1      -0.060  -2.685  -0.074  0.00  0.00    -0.077 A 
ATOM      3  C2  UNL d   1      -0.385  -2.244   1.215  0.00  0.00    -0.001 A 
ATOM      4  C3  UNL d   1      -0.345  -0.884   1.526  0.00  0.00     0.003 A 
ATOM      5  C4  UNL d   1       0.019   0.046   0.554  0.00  0.00    -0.005 A 
ATOM      6  C5  UNL d   1       0.342  -0.384  -0.732  0.00  0.00     0.003 A 
ATOM      7  C6  UNL d   1       0.302  -1.743  -1.045  0.00  0.00    -0.001 A 
ENDROOT
TORSDOF 0
ENDMDL
