MODEL 1
REMARK minimizedAffinity -5.41301346
REMARK minimizedRMSD -1
REMARK  0 active torsions:
REMARK  status: ('A' for Active; 'I' for Inactive)
ROOT
ATOM      1  C   UNL d   1       0.130  -3.196   0.648  0.00  0.00     0.078 C 
ATOM      2  C1  UNL d   1      -0.044  -1.726   0.413  0.00  0.00    -0.077 A 
ATOM      3  C2  UNL d   1       0.603  -1.085  -0.651  0.00  0.00    -0.001 A 
ATOM      4  C3  UNL d   1       0.440   0.287  -0.853  0.00  0.00     0.003 A 
ATOM      5  C4  UNL d   1      -0.368   1.029   0.005  0.00  0.00    -0.005 A 
ATOM      6  C5  UNL d   1      -1.014   0.400   1.068  0.00  0.00     0.003 A 
ATOM      7  C6  UNL d   1      -0.852  -0.971   1.271  0.00  0.00    -0.001 A 
ENDROOT
TORSDOF 0
ENDMDL
