MODEL 1
REMARK minimizedAffinity -4.15388823
REMARK minimizedRMSD -1
REMARK  0 active torsions:
REMARK  status: ('A' for Active; 'I' for Inactive)
ROOT
ATOM      1  C   UNL d   1       0.434   1.468  -0.110  0.00  0.00     0.078 C 
ATOM      2  C1  UNL d   1       0.102   0.035   0.183  0.00  0.00    -0.077 A 
ATOM      3  C2  UNL d   1       0.723  -1.006  -0.517  0.00  0.00    -0.001 A 
ATOM      4  C3  UNL d   1       0.396  -2.335  -0.241  0.00  0.00     0.003 A 
ATOM      5  C4  UNL d   1      -0.553  -2.634   0.734  0.00  0.00    -0.005 A 
ATOM      6  C5  UNL d   1      -1.177  -1.604   1.434  0.00  0.00     0.003 A 
ATOM      7  C6  UNL d   1      -0.852  -0.275   1.160  0.00  0.00    -0.001 A 
ENDROOT
TORSDOF 0
ENDMDL
