MODEL 1
REMARK minimizedAffinity -3.89678693
REMARK minimizedRMSD -1
REMARK  0 active torsions:
REMARK  status: ('A' for Active; 'I' for Inactive)
ROOT
ATOM      1  C   UNL d   1       0.432  -3.448   0.284  0.00  0.00     0.078 C 
ATOM      2  C1  UNL d   1       0.255  -1.962   0.184  0.00  0.00    -0.077 A 
ATOM      3  C2  UNL d   1      -0.573  -1.273   1.078  0.00  0.00    -0.001 A 
ATOM      4  C3  UNL d   1      -0.736   0.109   0.966  0.00  0.00     0.003 A 
ATOM      5  C4  UNL d   1      -0.075   0.813  -0.039  0.00  0.00    -0.005 A 
ATOM      6  C5  UNL d   1       0.749   0.135  -0.934  0.00  0.00     0.003 A 
ATOM      7  C6  UNL d   1       0.913  -1.247  -0.825  0.00  0.00    -0.001 A 
ENDROOT
TORSDOF 0
ENDMDL
