MODEL 1
REMARK minimizedAffinity -4.43374634
REMARK minimizedRMSD -1
REMARK  0 active torsions:
REMARK  status: ('A' for Active; 'I' for Inactive)
ROOT
ATOM      1  C   UNL d   1       0.609  -2.642   0.616  0.00  0.00     0.078 C 
ATOM      2  C1  UNL d   1       0.330  -1.332  -0.058  0.00  0.00    -0.077 A 
ATOM      3  C2  UNL d   1       0.589  -1.152  -1.422  0.00  0.00    -0.001 A 
ATOM      4  C3  UNL d   1       0.333   0.076  -2.033  0.00  0.00     0.003 A 
ATOM      5  C4  UNL d   1      -0.183   1.134  -1.288  0.00  0.00    -0.005 A 
ATOM      6  C5  UNL d   1      -0.442   0.966   0.070  0.00  0.00     0.003 A 
ATOM      7  C6  UNL d   1      -0.187  -0.262   0.684  0.00  0.00    -0.001 A 
ENDROOT
TORSDOF 0
ENDMDL
