MODEL 1
REMARK minimizedAffinity -1.79549944
REMARK minimizedRMSD -1
REMARK  0 active torsions:
REMARK  status: ('A' for Active; 'I' for Inactive)
ROOT
ATOM      1  C   UNL d   1      -0.633  -2.886   0.682  0.00  0.00     0.078 C 
ATOM      2  C1  UNL d   1      -0.592  -1.417   0.384  0.00  0.00    -0.077 A 
ATOM      3  C2  UNL d   1       0.087  -0.928  -0.740  0.00  0.00    -0.001 A 
ATOM      4  C3  UNL d   1       0.125   0.443  -1.000  0.00  0.00     0.003 A 
ATOM      5  C4  UNL d   1      -0.511   1.336  -0.141  0.00  0.00    -0.005 A 
ATOM      6  C5  UNL d   1      -1.187   0.860   0.981  0.00  0.00     0.003 A 
ATOM      7  C6  UNL d   1      -1.227  -0.511   1.243  0.00  0.00    -0.001 A 
ENDROOT
TORSDOF 0
ENDMDL
