MODEL 1
REMARK minimizedAffinity -4.97966003
REMARK minimizedRMSD -1
REMARK  0 active torsions:
REMARK  status: ('A' for Active; 'I' for Inactive)
ROOT
ATOM      1  C   UNL d   1      -0.231   0.672   0.137  0.00  0.00     0.078 C 
ATOM      2  C1  UNL d   1      -0.010  -0.805   0.002  0.00  0.00    -0.077 A 
ATOM      3  C2  UNL d   1      -0.018  -1.423  -1.254  0.00  0.00    -0.001 A 
ATOM      4  C3  UNL d   1       0.179  -2.800  -1.365  0.00  0.00     0.003 A 
ATOM      5  C4  UNL d   1       0.385  -3.571  -0.222  0.00  0.00    -0.005 A 
ATOM      6  C5  UNL d   1       0.393  -2.965   1.032  0.00  0.00     0.003 A 
ATOM      7  C6  UNL d   1       0.195  -1.588   1.145  0.00  0.00    -0.001 A 
ENDROOT
TORSDOF 0
ENDMDL
