MODEL 1
REMARK minimizedAffinity -5.70962429
REMARK minimizedRMSD -1
REMARK  0 active torsions:
REMARK  status: ('A' for Active; 'I' for Inactive)
ROOT
ATOM      1  C   UNL d   1       0.152   1.093   0.008  0.00  0.00     0.078 C 
ATOM      2  C1  UNL d   1       0.071  -0.397  -0.145  0.00  0.00    -0.077 A 
ATOM      3  C2  UNL d   1       0.476  -1.023  -1.331  0.00  0.00    -0.001 A 
ATOM      4  C3  UNL d   1       0.386  -2.409  -1.463  0.00  0.00     0.003 A 
ATOM      5  C4  UNL d   1      -0.108  -3.182  -0.414  0.00  0.00    -0.005 A 
ATOM      6  C5  UNL d   1      -0.515  -2.568   0.769  0.00  0.00     0.003 A 
ATOM      7  C6  UNL d   1      -0.426  -1.181   0.903  0.00  0.00    -0.001 A 
ENDROOT
TORSDOF 0
ENDMDL
