MODEL 1
REMARK minimizedAffinity -3.85822153
REMARK minimizedRMSD -1
REMARK  0 active torsions:
REMARK  status: ('A' for Active; 'I' for Inactive)
ROOT
ATOM      1  C   UNL d   1       0.213  -1.494  -2.826  0.00  0.00     0.078 C 
ATOM      2  C1  UNL d   1      -0.268  -1.148  -1.449  0.00  0.00    -0.077 A 
ATOM      3  C2  UNL d   1      -0.150   0.155  -0.950  0.00  0.00    -0.001 A 
ATOM      4  C3  UNL d   1      -0.592   0.461   0.338  0.00  0.00     0.003 A 
ATOM      5  C4  UNL d   1      -1.156  -0.532   1.138  0.00  0.00    -0.005 A 
ATOM      6  C5  UNL d   1      -1.275  -1.831   0.651  0.00  0.00     0.003 A 
ATOM      7  C6  UNL d   1      -0.833  -2.139  -0.636  0.00  0.00    -0.001 A 
ENDROOT
TORSDOF 0
ENDMDL
