MODEL 1
REMARK minimizedAffinity -4.2218194
REMARK minimizedRMSD -1
REMARK  0 active torsions:
REMARK  status: ('A' for Active; 'I' for Inactive)
ROOT
ATOM      1  C   UNL d   1       0.264  -2.233  -2.824  0.00  0.00     0.078 C 
ATOM      2  C1  UNL d   1      -0.108  -1.952  -1.399  0.00  0.00    -0.077 A 
ATOM      3  C2  UNL d   1      -0.739  -2.925  -0.614  0.00  0.00    -0.001 A 
ATOM      4  C3  UNL d   1      -1.089  -2.647   0.708  0.00  0.00     0.003 A 
ATOM      5  C4  UNL d   1      -0.814  -1.397   1.257  0.00  0.00    -0.005 A 
ATOM      6  C5  UNL d   1      -0.188  -0.421   0.483  0.00  0.00     0.003 A 
ATOM      7  C6  UNL d   1       0.163  -0.697  -0.839  0.00  0.00    -0.001 A 
ENDROOT
TORSDOF 0
ENDMDL
