MODEL 1
REMARK minimizedAffinity -5.5245142
REMARK minimizedRMSD -1
REMARK  0 active torsions:
REMARK  status: ('A' for Active; 'I' for Inactive)
ROOT
ATOM      1  C   UNL d   1       0.225  -2.447  -2.724  0.00  0.00     0.078 C 
ATOM      2  C1  UNL d   1      -0.046  -1.855  -1.373  0.00  0.00    -0.077 A 
ATOM      3  C2  UNL d   1      -0.337  -2.671  -0.273  0.00  0.00    -0.001 A 
ATOM      4  C3  UNL d   1      -0.597  -2.105   0.976  0.00  0.00     0.003 A 
ATOM      5  C4  UNL d   1      -0.569  -0.721   1.137  0.00  0.00    -0.005 A 
ATOM      6  C5  UNL d   1      -0.282   0.099   0.048  0.00  0.00     0.003 A 
ATOM      7  C6  UNL d   1      -0.022  -0.465  -1.202  0.00  0.00    -0.001 A 
ENDROOT
TORSDOF 0
ENDMDL
