MODEL 1
REMARK minimizedAffinity -3.759202
REMARK minimizedRMSD -1
REMARK  0 active torsions:
REMARK  status: ('A' for Active; 'I' for Inactive)
ROOT
ATOM      1  C   UNL d   1       0.443  -1.879  -2.768  0.00  0.00     0.078 C 
ATOM      2  C1  UNL d   1      -0.010  -1.488  -1.393  0.00  0.00    -0.077 A 
ATOM      3  C2  UNL d   1      -0.627  -2.416  -0.546  0.00  0.00    -0.001 A 
ATOM      4  C3  UNL d   1      -1.053  -2.036   0.728  0.00  0.00     0.003 A 
ATOM      5  C4  UNL d   1      -0.868  -0.726   1.165  0.00  0.00    -0.005 A 
ATOM      6  C5  UNL d   1      -0.256   0.206   0.328  0.00  0.00     0.003 A 
ATOM      7  C6  UNL d   1       0.170  -0.173  -0.946  0.00  0.00    -0.001 A 
ENDROOT
TORSDOF 0
ENDMDL
