MODEL 1
REMARK minimizedAffinity -4.94814491
REMARK minimizedRMSD -1
REMARK  0 active torsions:
REMARK  status: ('A' for Active; 'I' for Inactive)
ROOT
ATOM      1  C   UNL d   1      -0.013   1.262   0.017  0.00  0.00     0.078 C 
ATOM      2  C1  UNL d   1      -0.002  -0.232  -0.104  0.00  0.00    -0.077 A 
ATOM      3  C2  UNL d   1       0.443  -0.858  -1.274  0.00  0.00    -0.001 A 
ATOM      4  C3  UNL d   1       0.438  -2.250  -1.376  0.00  0.00     0.003 A 
ATOM      5  C4  UNL d   1      -0.013  -3.028  -0.312  0.00  0.00    -0.005 A 
ATOM      6  C5  UNL d   1      -0.460  -2.414   0.856  0.00  0.00     0.003 A 
ATOM      7  C6  UNL d   1      -0.456  -1.022   0.960  0.00  0.00    -0.001 A 
ENDROOT
TORSDOF 0
ENDMDL
