MODEL 1
REMARK minimizedAffinity -4.89603424
REMARK minimizedRMSD -1
REMARK  0 active torsions:
REMARK  status: ('A' for Active; 'I' for Inactive)
ROOT
ATOM      1  C   UNL d   1      -1.780  -0.151   1.069  0.00  0.00     0.078 C 
ATOM      2  C1  UNL d   1      -0.955  -1.221   0.420  0.00  0.00    -0.077 A 
ATOM      3  C2  UNL d   1       0.220  -0.905  -0.274  0.00  0.00    -0.001 A 
ATOM      4  C3  UNL d   1       0.973  -1.911  -0.882  0.00  0.00     0.003 A 
ATOM      5  C4  UNL d   1       0.559  -3.239  -0.804  0.00  0.00    -0.005 A 
ATOM      6  C5  UNL d   1      -0.610  -3.563  -0.118  0.00  0.00     0.003 A 
ATOM      7  C6  UNL d   1      -1.364  -2.559   0.491  0.00  0.00    -0.001 A 
ENDROOT
TORSDOF 0
ENDMDL
