MODEL 1
REMARK minimizedAffinity -0.389312029
REMARK minimizedRMSD -1
REMARK  0 active torsions:
REMARK  status: ('A' for Active; 'I' for Inactive)
ROOT
ATOM      1  C   UNL d   1       1.172   2.728   0.305  0.00  0.00     0.078 C 
ATOM      2  C1  UNL d   1       0.513   1.385   0.203  0.00  0.00    -0.077 A 
ATOM      3  C2  UNL d   1      -0.205   1.019  -0.942  0.00  0.00    -0.001 A 
ATOM      4  C3  UNL d   1      -0.821  -0.231  -1.019  0.00  0.00     0.003 A 
ATOM      5  C4  UNL d   1      -0.726  -1.125   0.046  0.00  0.00    -0.005 A 
ATOM      6  C5  UNL d   1      -0.015  -0.769   1.190  0.00  0.00     0.003 A 
ATOM      7  C6  UNL d   1       0.602   0.481   1.269  0.00  0.00    -0.001 A 
ENDROOT
TORSDOF 0
ENDMDL
