MODEL 1
REMARK minimizedAffinity -5.883605
REMARK minimizedRMSD -1
REMARK  0 active torsions:
REMARK  status: ('A' for Active; 'I' for Inactive)
ROOT
ATOM      1  C   UNL d   1       0.396  -2.178  -2.569  0.00  0.00     0.078 C 
ATOM      2  C1  UNL d   1      -0.043  -1.858  -1.171  0.00  0.00    -0.077 A 
ATOM      3  C2  UNL d   1      -0.319  -2.877  -0.251  0.00  0.00    -0.001 A 
ATOM      4  C3  UNL d   1      -0.737  -2.566   1.044  0.00  0.00     0.003 A 
ATOM      5  C4  UNL d   1      -0.884  -1.235   1.430  0.00  0.00    -0.005 A 
ATOM      6  C5  UNL d   1      -0.614  -0.214   0.521  0.00  0.00     0.003 A 
ATOM      7  C6  UNL d   1      -0.196  -0.524  -0.774  0.00  0.00    -0.001 A 
ENDROOT
TORSDOF 0
ENDMDL
