MODEL 1
REMARK minimizedAffinity -3.38122511
REMARK minimizedRMSD -1
REMARK  0 active torsions:
REMARK  status: ('A' for Active; 'I' for Inactive)
ROOT
ATOM      1  C   UNL d   1       0.680   2.424   0.165  0.00  0.00     0.078 C 
ATOM      2  C1  UNL d   1       0.058   1.059   0.161  0.00  0.00    -0.077 A 
ATOM      3  C2  UNL d   1      -0.063   0.325  -1.025  0.00  0.00    -0.001 A 
ATOM      4  C3  UNL d   1      -0.653  -0.940  -1.015  0.00  0.00     0.003 A 
ATOM      5  C4  UNL d   1      -1.127  -1.482   0.178  0.00  0.00    -0.005 A 
ATOM      6  C5  UNL d   1      -1.012  -0.757   1.363  0.00  0.00     0.003 A 
ATOM      7  C6  UNL d   1      -0.423   0.508   1.355  0.00  0.00    -0.001 A 
ENDROOT
TORSDOF 0
ENDMDL
