MODEL 1
REMARK minimizedAffinity -2.66976786
REMARK minimizedRMSD -1
REMARK  0 active torsions:
REMARK  status: ('A' for Active; 'I' for Inactive)
ROOT
ATOM      1  N1  IND d   1      -0.693  -1.172   0.371  0.00  0.00    -0.196 N 
ATOM      2  C2  IND d   1      -1.858  -0.716  -0.181  0.00  0.00     0.054 A 
ATOM      3  C3  IND d   1      -1.701   0.547  -0.636  0.00  0.00    -0.031 A 
ATOM      4  C4  IND d   1       0.409   2.022  -0.670  0.00  0.00     0.051 A 
ATOM      5  C5  IND d   1       1.707   2.055  -0.246  0.00  0.00    -0.031 A 
ATOM      6  C6  IND d   1       2.285   0.991   0.416  0.00  0.00     0.015 A 
ATOM      7  C7  IND d   1       1.585  -0.155   0.671  0.00  0.00    -0.016 A 
ATOM      8  C8  IND d   1       0.264  -0.189   0.248  0.00  0.00    -0.047 A 
ATOM      9  C9  IND d   1      -0.340   0.904  -0.388  0.00  0.00    -0.096 A 
ATOM     10  HN1 IND d   1      -0.578  -1.942   0.734  0.00  0.00     0.298 HD
ENDROOT
TORSDOF 0
ENDMDL
