MODEL 1
REMARK minimizedAffinity -2.81732082
REMARK minimizedRMSD -1
REMARK  0 active torsions:
REMARK  status: ('A' for Active; 'I' for Inactive)
ROOT
ATOM      1  N1  IND d   1      -0.573  -1.078   0.729  0.00  0.00    -0.196 N 
ATOM      2  C2  IND d   1      -1.771  -0.694   0.193  0.00  0.00     0.054 A 
ATOM      3  C3  IND d   1      -1.661   0.528  -0.376  0.00  0.00    -0.031 A 
ATOM      4  C4  IND d   1       0.413   2.032  -0.632  0.00  0.00     0.051 A 
ATOM      5  C5  IND d   1       1.728   2.125  -0.271  0.00  0.00    -0.031 A 
ATOM      6  C6  IND d   1       2.356   1.133   0.454  0.00  0.00     0.015 A 
ATOM      7  C7  IND d   1       1.693   0.002   0.837  0.00  0.00    -0.016 A 
ATOM      8  C8  IND d   1       0.356  -0.093   0.479  0.00  0.00    -0.047 A 
ATOM      9  C9  IND d   1      -0.299   0.930  -0.221  0.00  0.00    -0.096 A 
ATOM     10  HN1 IND d   1      -0.426  -1.812   1.152  0.00  0.00     0.298 HD
ENDROOT
TORSDOF 0
ENDMDL
