MODEL 1
REMARK minimizedAffinity -3.3802762
REMARK minimizedRMSD -1
REMARK  0 active torsions:
REMARK  status: ('A' for Active; 'I' for Inactive)
ROOT
ATOM      1  N1  IND d   1      -4.189   2.439  -4.022  0.00  0.00    -0.196 N 
ATOM      2  C2  IND d   1      -4.260   3.488  -3.148  0.00  0.00     0.054 A 
ATOM      3  C3  IND d   1      -3.756   3.132  -1.944  0.00  0.00    -0.031 A 
ATOM      4  C4  IND d   1      -2.671   0.914  -1.217  0.00  0.00     0.051 A 
ATOM      5  C5  IND d   1      -2.413  -0.354  -1.657  0.00  0.00    -0.031 A 
ATOM      6  C6  IND d   1      -2.737  -0.763  -2.934  0.00  0.00     0.015 A 
ATOM      7  C7  IND d   1      -3.325   0.088  -3.827  0.00  0.00    -0.016 A 
ATOM      8  C8  IND d   1      -3.595   1.374  -3.382  0.00  0.00    -0.047 A 
ATOM      9  C9  IND d   1      -3.306   1.782  -2.073  0.00  0.00    -0.096 A 
ATOM     10  HN1 IND d   1      -4.469   2.444  -4.835  0.00  0.00     0.298 HD
ENDROOT
TORSDOF 0
ENDMDL
