MODEL 1
REMARK minimizedAffinity -4.34930229
REMARK minimizedRMSD -1
REMARK  0 active torsions:
REMARK  status: ('A' for Active; 'I' for Inactive)
ROOT
ATOM      1  N1  IND d   1       1.697   2.185   1.798  0.00  0.00    -0.196 N 
ATOM      2  C2  IND d   1       2.186   2.622   2.998  0.00  0.00     0.054 A 
ATOM      3  C3  IND d   1       2.766   1.602   3.668  0.00  0.00    -0.031 A 
ATOM      4  C4  IND d   1       3.117  -0.843   2.942  0.00  0.00     0.051 A 
ATOM      5  C5  IND d   1       2.811  -1.725   1.944  0.00  0.00    -0.031 A 
ATOM      6  C6  IND d   1       2.106  -1.340   0.822  0.00  0.00     0.015 A 
ATOM      7  C7  IND d   1       1.689  -0.050   0.651  0.00  0.00    -0.016 A 
ATOM      8  C8  IND d   1       1.992   0.846   1.666  0.00  0.00    -0.047 A 
ATOM      9  C9  IND d   1       2.670   0.452   2.826  0.00  0.00    -0.096 A 
ATOM     10  HN1 IND d   1       1.276   2.666   1.223  0.00  0.00     0.298 HD
ENDROOT
TORSDOF 0
ENDMDL
