MODEL 1
REMARK minimizedAffinity -3.53179812
REMARK minimizedRMSD -1
REMARK  0 active torsions:
REMARK  status: ('A' for Active; 'I' for Inactive)
ROOT
ATOM      1  N1  IND d   1       0.180  -1.967   1.863  0.00  0.00    -0.196 N 
ATOM      2  C2  IND d   1       1.283  -2.195   2.638  0.00  0.00     0.054 A 
ATOM      3  C3  IND d   1       2.215  -1.239   2.422  0.00  0.00    -0.031 A 
ATOM      4  C4  IND d   1       2.099   0.847   0.918  0.00  0.00     0.051 A 
ATOM      5  C5  IND d   1       1.307   1.464  -0.010  0.00  0.00    -0.031 A 
ATOM      6  C6  IND d   1       0.073   0.959  -0.367  0.00  0.00     0.015 A 
ATOM      7  C7  IND d   1      -0.422  -0.180   0.203  0.00  0.00    -0.016 A 
ATOM      8  C8  IND d   1       0.382  -0.812   1.141  0.00  0.00    -0.047 A 
ATOM      9  C9  IND d   1       1.653  -0.328   1.476  0.00  0.00    -0.096 A 
ATOM     10  HN1 IND d   1      -0.523  -2.463   1.833  0.00  0.00     0.298 HD
ENDROOT
TORSDOF 0
ENDMDL
