MODEL 1
REMARK minimizedAffinity -5.59773636
REMARK minimizedRMSD -1
REMARK  0 active torsions:
REMARK  status: ('A' for Active; 'I' for Inactive)
ROOT
ATOM      1  N1  IND d   1      -0.725  -0.849   0.252  0.00  0.00    -0.196 N 
ATOM      2  C2  IND d   1      -0.826   0.407  -0.278  0.00  0.00     0.054 A 
ATOM      3  C3  IND d   1       0.348   1.065  -0.156  0.00  0.00    -0.031 A 
ATOM      4  C4  IND d   1       2.596   0.239   0.790  0.00  0.00     0.051 A 
ATOM      5  C5  IND d   1       3.171  -0.825   1.425  0.00  0.00    -0.031 A 
ATOM      6  C6  IND d   1       2.464  -1.977   1.705  0.00  0.00     0.015 A 
ATOM      7  C7  IND d   1       1.152  -2.111   1.348  0.00  0.00    -0.016 A 
ATOM      8  C8  IND d   1       0.562  -1.029   0.710  0.00  0.00    -0.047 A 
ATOM      9  C9  IND d   1       1.263   0.158   0.461  0.00  0.00    -0.096 A 
ATOM     10  HN1 IND d   1      -1.358  -1.429   0.294  0.00  0.00     0.298 HD
ENDROOT
TORSDOF 0
ENDMDL
