MODEL 1
REMARK minimizedAffinity -5.29860687
REMARK minimizedRMSD -1
REMARK  0 active torsions:
REMARK  status: ('A' for Active; 'I' for Inactive)
ROOT
ATOM      1  N1  IND d   1       2.774  -0.280   1.028  0.00  0.00    -0.196 N 
ATOM      2  C2  IND d   1       2.984  -1.523   1.559  0.00  0.00     0.054 A 
ATOM      3  C3  IND d   1       1.819  -2.205   1.634  0.00  0.00    -0.031 A 
ATOM      4  C4  IND d   1      -0.534  -1.514   0.849  0.00  0.00     0.051 A 
ATOM      5  C5  IND d   1      -1.231  -0.457   0.334  0.00  0.00    -0.031 A 
ATOM      6  C6  IND d   1      -0.615   0.736   0.015  0.00  0.00     0.015 A 
ATOM      7  C7  IND d   1       0.729   0.914   0.190  0.00  0.00    -0.016 A 
ATOM      8  C8  IND d   1       1.438  -0.155   0.719  0.00  0.00    -0.047 A 
ATOM      9  C9  IND d   1       0.811  -1.354   1.084  0.00  0.00    -0.096 A 
ATOM     10  HN1 IND d   1       3.376   0.322   0.908  0.00  0.00     0.298 HD
ENDROOT
TORSDOF 0
ENDMDL
