MODEL 1
REMARK minimizedAffinity -6.10432291
REMARK minimizedRMSD -1
REMARK  0 active torsions:
REMARK  status: ('A' for Active; 'I' for Inactive)
ROOT
ATOM      1  N1  IND d   1       2.828  -1.012   0.367  0.00  0.00    -0.196 N 
ATOM      2  C2  IND d   1       2.887  -1.643   1.577  0.00  0.00     0.054 A 
ATOM      3  C3  IND d   1       1.647  -1.776   2.100  0.00  0.00    -0.031 A 
ATOM      4  C4  IND d   1      -0.630  -1.121   1.093  0.00  0.00     0.051 A 
ATOM      5  C5  IND d   1      -1.191  -0.482   0.023  0.00  0.00    -0.031 A 
ATOM      6  C6  IND d   1      -0.426   0.021  -1.009  0.00  0.00     0.015 A 
ATOM      7  C7  IND d   1       0.935  -0.107  -1.015  0.00  0.00    -0.016 A 
ATOM      8  C8  IND d   1       1.508  -0.749   0.073  0.00  0.00    -0.047 A 
ATOM      9  C9  IND d   1       0.740  -1.224   1.144  0.00  0.00    -0.096 A 
ATOM     10  HN1 IND d   1       3.502  -0.812  -0.128  0.00  0.00     0.298 HD
ENDROOT
TORSDOF 0
ENDMDL
