MODEL 1
REMARK minimizedAffinity -6.49244118
REMARK minimizedRMSD -1
REMARK  0 active torsions:
REMARK  status: ('A' for Active; 'I' for Inactive)
ROOT
ATOM      1  N1  IND d   1      -1.078  -0.387   0.103  0.00  0.00    -0.196 N 
ATOM      2  C2  IND d   1      -1.083   0.882  -0.405  0.00  0.00     0.054 A 
ATOM      3  C3  IND d   1       0.127   1.461  -0.237  0.00  0.00    -0.031 A 
ATOM      4  C4  IND d   1       2.288   0.474   0.754  0.00  0.00     0.051 A 
ATOM      5  C5  IND d   1       2.776  -0.636   1.383  0.00  0.00    -0.031 A 
ATOM      6  C6  IND d   1       1.988  -1.745   1.620  0.00  0.00     0.015 A 
ATOM      7  C7  IND d   1       0.681  -1.787   1.225  0.00  0.00    -0.016 A 
ATOM      8  C8  IND d   1       0.181  -0.658   0.592  0.00  0.00    -0.047 A 
ATOM      9  C9  IND d   1       0.964   0.485   0.387  0.00  0.00    -0.096 A 
ATOM     10  HN1 IND d   1      -1.748  -0.925   0.116  0.00  0.00     0.298 HD
ENDROOT
TORSDOF 0
ENDMDL
