MODEL 1
REMARK minimizedAffinity -6.09315634
REMARK minimizedRMSD -1
REMARK  0 active torsions:
REMARK  status: ('A' for Active; 'I' for Inactive)
ROOT
ATOM      1  N1  IND d   1      -0.428  -0.847   0.594  0.00  0.00    -0.196 N 
ATOM      2  C2  IND d   1      -0.459   0.371  -0.025  0.00  0.00     0.054 A 
ATOM      3  C3  IND d   1       0.707   1.027   0.168  0.00  0.00    -0.031 A 
ATOM      4  C4  IND d   1       2.840   0.248   1.381  0.00  0.00     0.051 A 
ATOM      5  C5  IND d   1       3.336  -0.776   2.137  0.00  0.00    -0.031 A 
ATOM      6  C6  IND d   1       2.589  -1.901   2.421  0.00  0.00     0.015 A 
ATOM      7  C7  IND d   1       1.316  -2.048   1.948  0.00  0.00    -0.016 A 
ATOM      8  C8  IND d   1       0.806  -1.007   1.185  0.00  0.00    -0.047 A 
ATOM      9  C9  IND d   1       1.545   0.156   0.929  0.00  0.00    -0.096 A 
ATOM     10  HN1 IND d   1      -1.071  -1.418   0.612  0.00  0.00     0.298 HD
ENDROOT
TORSDOF 0
ENDMDL
