MODEL 1
REMARK minimizedAffinity 11.9864712
REMARK minimizedRMSD -1
REMARK  1 active torsions:
REMARK  status: ('A' for Active; 'I' for Inactive)
REMARK    1  A    between atoms: C1_2  and  C2_3 
ROOT
ATOM      1  C2  UNL d   1       0.139   3.060  -0.524  0.00  0.00    -0.076 A 
ATOM      2  C3  UNL d   1      -0.319   3.999  -1.464  0.00  0.00     0.004 A 
ATOM      3  C4  UNL d   1       0.537   4.967  -1.987  0.00  0.00    -0.003 A 
ATOM      4  C5  UNL d   1       1.865   5.011  -1.578  0.00  0.00     0.000 A 
ATOM      5  C6  UNL d   1       2.341   4.076  -0.660  0.00  0.00     0.000 A 
ATOM      6  C7  UNL d   1       1.495   3.083  -0.135  0.00  0.00    -0.073 A 
ATOM      7  C8  UNL d   1       2.060   2.104   0.858  0.00  0.00     0.078 C 
ENDROOT
BRANCH   1   8
ATOM      8  C1  UNL d   1      -0.842   2.051   0.029  0.00  0.00     0.053 C 
ATOM      9  C   UNL d   1      -2.275   2.340  -0.392  0.00  0.00     0.018 C 
ENDBRANCH   1   8
TORSDOF 1
ENDMDL
