MODEL 1
REMARK minimizedAffinity 4.31315231
REMARK minimizedRMSD -1
REMARK  1 active torsions:
REMARK  status: ('A' for Active; 'I' for Inactive)
REMARK    1  A    between atoms: C1_2  and  C2_3 
ROOT
ATOM      1  C2  UNL d   1       4.726  -0.961  -3.918  0.00  0.00    -0.076 A 
ATOM      2  C3  UNL d   1       4.808  -2.157  -3.183  0.00  0.00     0.004 A 
ATOM      3  C4  UNL d   1       3.669  -2.738  -2.629  0.00  0.00    -0.003 A 
ATOM      4  C5  UNL d   1       2.429  -2.133  -2.802  0.00  0.00     0.000 A 
ATOM      5  C6  UNL d   1       2.326  -0.957  -3.543  0.00  0.00     0.000 A 
ATOM      6  C7  UNL d   1       3.463  -0.366  -4.121  0.00  0.00    -0.073 A 
ATOM      7  C8  UNL d   1       3.295   0.907  -4.906  0.00  0.00     0.078 C 
ENDROOT
BRANCH   1   8
ATOM      8  C1  UNL d   1       6.000  -0.362  -4.471  0.00  0.00     0.053 C 
ATOM      9  C   UNL d   1       6.000  -0.297  -5.991  0.00  0.00     0.018 C 
ENDBRANCH   1   8
TORSDOF 1
ENDMDL
