MODEL 1
REMARK minimizedAffinity 1.33709598
REMARK minimizedRMSD -1
REMARK  1 active torsions:
REMARK  status: ('A' for Active; 'I' for Inactive)
REMARK    1  A    between atoms: C1_2  and  C2_3 
ROOT
ATOM      1  C2  UNL d   1      -5.679  -5.065  -3.547  0.00  0.00    -0.076 A 
ATOM      2  C3  UNL d   1      -5.786  -5.742  -4.775  0.00  0.00     0.004 A 
ATOM      3  C4  UNL d   1      -5.946  -5.040  -5.969  0.00  0.00    -0.003 A 
ATOM      4  C5  UNL d   1      -6.000  -3.651  -5.954  0.00  0.00     0.000 A 
ATOM      5  C6  UNL d   1      -5.876  -2.963  -4.748  0.00  0.00     0.000 A 
ATOM      6  C7  UNL d   1      -5.699  -3.654  -3.537  0.00  0.00    -0.073 A 
ATOM      7  C8  UNL d   1      -5.578  -2.862  -2.264  0.00  0.00     0.078 C 
ENDROOT
BRANCH   1   8
ATOM      8  C1  UNL d   1      -5.534  -5.880  -2.281  0.00  0.00     0.053 C 
ATOM      9  C   UNL d   1      -4.088  -5.999  -1.827  0.00  0.00     0.018 C 
ENDBRANCH   1   8
TORSDOF 1
ENDMDL
