MODEL 1
REMARK minimizedAffinity 11.9569397
REMARK minimizedRMSD -1
REMARK  1 active torsions:
REMARK  status: ('A' for Active; 'I' for Inactive)
REMARK    1  A    between atoms: C1_2  and  C2_3 
ROOT
ATOM      1  C2  UNL d   1       0.919  -3.399   1.779  0.00  0.00    -0.076 A 
ATOM      2  C3  UNL d   1       1.251  -3.470   3.143  0.00  0.00     0.004 A 
ATOM      3  C4  UNL d   1       1.852  -4.609   3.677  0.00  0.00    -0.003 A 
ATOM      4  C5  UNL d   1       2.130  -5.695   2.856  0.00  0.00     0.000 A 
ATOM      5  C6  UNL d   1       1.824  -5.636   1.497  0.00  0.00     0.000 A 
ATOM      6  C7  UNL d   1       1.233  -4.489   0.939  0.00  0.00    -0.073 A 
ATOM      7  C8  UNL d   1       0.918  -4.481  -0.532  0.00  0.00     0.078 C 
ENDROOT
BRANCH   1   8
ATOM      8  C1  UNL d   1       0.244  -2.149   1.262  0.00  0.00     0.053 C 
ATOM      9  C   UNL d   1       1.193  -0.962   1.192  0.00  0.00     0.018 C 
ENDBRANCH   1   8
TORSDOF 1
ENDMDL
