MODEL 1
REMARK minimizedAffinity 10.7521372
REMARK minimizedRMSD -1
REMARK  1 active torsions:
REMARK  status: ('A' for Active; 'I' for Inactive)
REMARK    1  A    between atoms: C1_2  and  C2_3 
ROOT
ATOM      1  C2  UNL d   1       4.070  -0.579  -3.936  0.00  0.00    -0.076 A 
ATOM      2  C3  UNL d   1       5.045  -1.576  -4.107  0.00  0.00     0.004 A 
ATOM      3  C4  UNL d   1       5.988  -1.490  -5.129  0.00  0.00    -0.003 A 
ATOM      4  C5  UNL d   1       5.972  -0.404  -5.998  0.00  0.00     0.000 A 
ATOM      5  C6  UNL d   1       5.022   0.604  -5.832  0.00  0.00     0.000 A 
ATOM      6  C7  UNL d   1       4.074   0.540  -4.796  0.00  0.00    -0.073 A 
ATOM      7  C8  UNL d   1       3.069   1.652  -4.668  0.00  0.00     0.078 C 
ENDROOT
BRANCH   1   8
ATOM      8  C1  UNL d   1       3.055  -0.740  -2.826  0.00  0.00     0.053 C 
ATOM      9  C   UNL d   1       2.698  -2.196  -2.571  0.00  0.00     0.018 C 
ENDBRANCH   1   8
TORSDOF 1
ENDMDL
