MODEL 1
REMARK minimizedAffinity 4.83190584
REMARK minimizedRMSD -1
REMARK  1 active torsions:
REMARK  status: ('A' for Active; 'I' for Inactive)
REMARK    1  A    between atoms: C1_2  and  C2_3 
ROOT
ATOM      1  C2  UNL d   1      -0.832   1.415   1.921  0.00  0.00    -0.076 A 
ATOM      2  C3  UNL d   1      -1.441   0.173   2.172  0.00  0.00     0.004 A 
ATOM      3  C4  UNL d   1      -0.848  -1.015   1.751  0.00  0.00    -0.003 A 
ATOM      4  C5  UNL d   1       0.365  -0.982   1.072  0.00  0.00     0.000 A 
ATOM      5  C6  UNL d   1       0.993   0.240   0.830  0.00  0.00     0.000 A 
ATOM      6  C7  UNL d   1       0.416   1.446   1.262  0.00  0.00    -0.073 A 
ATOM      7  C8  UNL d   1       1.133   2.735   0.968  0.00  0.00     0.078 C 
ENDROOT
BRANCH   1   8
ATOM      8  C1  UNL d   1      -1.536   2.673   2.378  0.00  0.00     0.053 C 
ATOM      9  C   UNL d   1      -2.654   2.388   3.368  0.00  0.00     0.018 C 
ENDBRANCH   1   8
TORSDOF 1
ENDMDL
