MODEL 1
REMARK minimizedAffinity 2.37743974
REMARK minimizedRMSD -1
REMARK  1 active torsions:
REMARK  status: ('A' for Active; 'I' for Inactive)
REMARK    1  A    between atoms: C1_2  and  C2_3 
ROOT
ATOM      1  C2  UNL d   1      -2.720   1.626   3.256  0.00  0.00    -0.076 A 
ATOM      2  C3  UNL d   1      -1.945   2.771   3.002  0.00  0.00     0.004 A 
ATOM      3  C4  UNL d   1      -0.724   2.678   2.336  0.00  0.00    -0.003 A 
ATOM      4  C5  UNL d   1      -0.258   1.439   1.913  0.00  0.00     0.000 A 
ATOM      5  C6  UNL d   1      -1.021   0.294   2.142  0.00  0.00     0.000 A 
ATOM      6  C7  UNL d   1      -2.262   0.372   2.797  0.00  0.00    -0.073 A 
ATOM      7  C8  UNL d   1      -3.040  -0.895   3.022  0.00  0.00     0.078 C 
ENDROOT
BRANCH   1   8
ATOM      8  C1  UNL d   1      -4.023   1.784   4.006  0.00  0.00     0.053 C 
ATOM      9  C   UNL d   1      -3.882   2.660   5.241  0.00  0.00     0.018 C 
ENDBRANCH   1   8
TORSDOF 1
ENDMDL
