MODEL 1
REMARK minimizedAffinity -2.71821809
REMARK minimizedRMSD -1
REMARK  1 active torsions:
REMARK  status: ('A' for Active; 'I' for Inactive)
REMARK    1  A    between atoms: C1_2  and  C2_3 
ROOT
ATOM      1  C2  UNL d   1      -2.324   0.091   2.434  0.00  0.00    -0.076 A 
ATOM      2  C3  UNL d   1      -1.273  -0.483   1.698  0.00  0.00     0.004 A 
ATOM      3  C4  UNL d   1      -0.180   0.281   1.292  0.00  0.00    -0.003 A 
ATOM      4  C5  UNL d   1      -0.121   1.632   1.615  0.00  0.00     0.000 A 
ATOM      5  C6  UNL d   1      -1.147   2.214   2.360  0.00  0.00     0.000 A 
ATOM      6  C7  UNL d   1      -2.247   1.454   2.791  0.00  0.00    -0.073 A 
ATOM      7  C8  UNL d   1      -3.328   2.134   3.586  0.00  0.00     0.078 C 
ENDROOT
BRANCH   1   8
ATOM      8  C1  UNL d   1      -3.496  -0.782   2.824  0.00  0.00     0.053 C 
ATOM      9  C   UNL d   1      -3.232  -1.578   4.093  0.00  0.00     0.018 C 
ENDBRANCH   1   8
TORSDOF 1
ENDMDL
