MODEL 1
REMARK minimizedAffinity -4.01410913
REMARK minimizedRMSD -1
REMARK  1 active torsions:
REMARK  status: ('A' for Active; 'I' for Inactive)
REMARK    1  A    between atoms: C1_2  and  C2_3 
ROOT
ATOM      1  C2  UNL d   1      -1.841   0.708   1.662  0.00  0.00    -0.076 A 
ATOM      2  C3  UNL d   1      -2.988  -0.010   2.044  0.00  0.00     0.004 A 
ATOM      3  C4  UNL d   1      -3.890   0.518   2.967  0.00  0.00    -0.003 A 
ATOM      4  C5  UNL d   1      -3.660   1.773   3.521  0.00  0.00     0.000 A 
ATOM      5  C6  UNL d   1      -2.537   2.506   3.140  0.00  0.00     0.000 A 
ATOM      6  C7  UNL d   1      -1.626   1.995   2.199  0.00  0.00    -0.073 A 
ATOM      7  C8  UNL d   1      -0.428   2.826   1.828  0.00  0.00     0.078 C 
ENDROOT
BRANCH   1   8
ATOM      8  C1  UNL d   1      -0.885   0.073   0.678  0.00  0.00     0.053 C 
ATOM      9  C   UNL d   1       0.340  -0.522   1.356  0.00  0.00     0.018 C 
ENDBRANCH   1   8
TORSDOF 1
ENDMDL
