MODEL 1
REMARK minimizedAffinity -3.07467127
REMARK minimizedRMSD -1
REMARK  1 active torsions:
REMARK  status: ('A' for Active; 'I' for Inactive)
REMARK    1  A    between atoms: C1_2  and  C2_3 
ROOT
ATOM      1  C2  UNL d   1       0.322   0.502   1.234  0.00  0.00    -0.076 A 
ATOM      2  C3  UNL d   1       0.085   1.797   1.728  0.00  0.00     0.004 A 
ATOM      3  C4  UNL d   1      -1.133   2.127   2.319  0.00  0.00    -0.003 A 
ATOM      4  C5  UNL d   1      -2.135   1.168   2.425  0.00  0.00     0.000 A 
ATOM      5  C6  UNL d   1      -1.911  -0.126   1.956  0.00  0.00     0.000 A 
ATOM      6  C7  UNL d   1      -0.682  -0.480   1.373  0.00  0.00    -0.073 A 
ATOM      7  C8  UNL d   1      -0.497  -1.888   0.878  0.00  0.00     0.078 C 
ENDROOT
BRANCH   1   8
ATOM      8  C1  UNL d   1       1.653   0.210   0.579  0.00  0.00     0.053 C 
ATOM      9  C   UNL d   1       1.917   1.099  -0.626  0.00  0.00     0.018 C 
ENDBRANCH   1   8
TORSDOF 1
ENDMDL
