MODEL 1
REMARK minimizedAffinity -2.70875072
REMARK minimizedRMSD -1
REMARK  1 active torsions:
REMARK  status: ('A' for Active; 'I' for Inactive)
REMARK    1  A    between atoms: C1_2  and  C2_3 
ROOT
ATOM      1  C2  UNL d   1      -1.805   1.306   2.299  0.00  0.00    -0.076 A 
ATOM      2  C3  UNL d   1      -1.808  -0.098   2.367  0.00  0.00     0.004 A 
ATOM      3  C4  UNL d   1      -0.829  -0.849   1.718  0.00  0.00    -0.003 A 
ATOM      4  C5  UNL d   1       0.168  -0.208   0.991  0.00  0.00     0.000 A 
ATOM      5  C6  UNL d   1       0.196   1.184   0.928  0.00  0.00     0.000 A 
ATOM      6  C7  UNL d   1      -0.773   1.957   1.590  0.00  0.00    -0.073 A 
ATOM      7  C8  UNL d   1      -0.698   3.456   1.483  0.00  0.00     0.078 C 
ENDROOT
BRANCH   1   8
ATOM      8  C1  UNL d   1      -2.907   2.067   3.001  0.00  0.00     0.053 C 
ATOM      9  C   UNL d   1      -3.973   1.149   3.578  0.00  0.00     0.018 C 
ENDBRANCH   1   8
TORSDOF 1
ENDMDL
