MODEL 1
REMARK minimizedAffinity -0.541082501
REMARK minimizedRMSD -1
REMARK  1 active torsions:
REMARK  status: ('A' for Active; 'I' for Inactive)
REMARK    1  A    between atoms: C1_2  and  C2_3 
ROOT
ATOM      1  C2  UNL d   1      -1.348   1.366   2.151  0.00  0.00    -0.076 A 
ATOM      2  C3  UNL d   1      -0.189   1.716   1.436  0.00  0.00     0.004 A 
ATOM      3  C4  UNL d   1       0.558   0.751   0.764  0.00  0.00    -0.003 A 
ATOM      4  C5  UNL d   1       0.159  -0.581   0.795  0.00  0.00     0.000 A 
ATOM      5  C6  UNL d   1      -0.998  -0.943   1.484  0.00  0.00     0.000 A 
ATOM      6  C7  UNL d   1      -1.772   0.020   2.153  0.00  0.00    -0.073 A 
ATOM      7  C8  UNL d   1      -3.007  -0.428   2.886  0.00  0.00     0.078 C 
ENDROOT
BRANCH   1   8
ATOM      8  C1  UNL d   1      -2.103   2.452   2.884  0.00  0.00     0.053 C 
ATOM      9  C   UNL d   1      -3.344   1.926   3.588  0.00  0.00     0.018 C 
ENDBRANCH   1   8
TORSDOF 1
ENDMDL
