MODEL 1
REMARK minimizedAffinity 3.75074744
REMARK minimizedRMSD -1
REMARK  1 active torsions:
REMARK  status: ('A' for Active; 'I' for Inactive)
REMARK    1  A    between atoms: C1_2  and  C2_3 
ROOT
ATOM      1  C2  UNL d   1       1.665   1.329  -0.163  0.00  0.00    -0.076 A 
ATOM      2  C3  UNL d   1       0.473   2.014   0.131  0.00  0.00     0.004 A 
ATOM      3  C4  UNL d   1      -0.405   1.542   1.105  0.00  0.00    -0.003 A 
ATOM      4  C5  UNL d   1      -0.105   0.378   1.803  0.00  0.00     0.000 A 
ATOM      5  C6  UNL d   1       1.082  -0.306   1.537  0.00  0.00     0.000 A 
ATOM      6  C7  UNL d   1       1.985   0.166   0.569  0.00  0.00    -0.073 A 
ATOM      7  C8  UNL d   1       3.247  -0.614   0.319  0.00  0.00     0.078 C 
ENDROOT
BRANCH   1   8
ATOM      8  C1  UNL d   1       2.565   1.874  -1.249  0.00  0.00     0.053 C 
ATOM      9  C   UNL d   1       2.902   0.831  -2.304  0.00  0.00     0.018 C 
ENDBRANCH   1   8
TORSDOF 1
ENDMDL
