MODEL 1
REMARK minimizedAffinity 1.83306086
REMARK minimizedRMSD -1
REMARK  1 active torsions:
REMARK  status: ('A' for Active; 'I' for Inactive)
REMARK    1  A    between atoms: C1_2  and  C2_3 
ROOT
ATOM      1  C2  UNL d   1       0.361   0.451   1.144  0.00  0.00    -0.076 A 
ATOM      2  C3  UNL d   1       0.466  -0.950   1.172  0.00  0.00     0.004 A 
ATOM      3  C4  UNL d   1      -0.549  -1.735   1.715  0.00  0.00    -0.003 A 
ATOM      4  C5  UNL d   1      -1.687  -1.131   2.238  0.00  0.00     0.000 A 
ATOM      5  C6  UNL d   1      -1.817   0.257   2.202  0.00  0.00     0.000 A 
ATOM      6  C7  UNL d   1      -0.809   1.062   1.644  0.00  0.00    -0.073 A 
ATOM      7  C8  UNL d   1      -0.998   2.554   1.637  0.00  0.00     0.078 C 
ENDROOT
BRANCH   1   8
ATOM      8  C1  UNL d   1       1.507   1.252   0.567  0.00  0.00     0.053 C 
ATOM      9  C   UNL d   1       2.612   0.369   0.010  0.00  0.00     0.018 C 
ENDBRANCH   1   8
TORSDOF 1
ENDMDL
