MODEL 1
REMARK minimizedAffinity -3.5025239
REMARK minimizedRMSD -1
REMARK  1 active torsions:
REMARK  status: ('A' for Active; 'I' for Inactive)
REMARK    1  A    between atoms: C1_2  and  C2_3 
ROOT
ATOM      1  C2  UNL d   1       0.353   0.758   1.474  0.00  0.00    -0.076 A 
ATOM      2  C3  UNL d   1      -0.025   2.042   1.902  0.00  0.00     0.004 A 
ATOM      3  C4  UNL d   1      -1.314   2.292   2.369  0.00  0.00    -0.003 A 
ATOM      4  C5  UNL d   1      -2.247   1.262   2.415  0.00  0.00     0.000 A 
ATOM      5  C6  UNL d   1      -1.884  -0.022   2.010  0.00  0.00     0.000 A 
ATOM      6  C7  UNL d   1      -0.584  -0.295   1.553  0.00  0.00    -0.073 A 
ATOM      7  C8  UNL d   1      -0.249  -1.697   1.123  0.00  0.00     0.078 C 
ENDROOT
BRANCH   1   8
ATOM      8  C1  UNL d   1       1.757   0.552   0.952  0.00  0.00     0.053 C 
ATOM      9  C   UNL d   1       1.802   0.418  -0.562  0.00  0.00     0.018 C 
ENDBRANCH   1   8
TORSDOF 1
ENDMDL
