MODEL 1
REMARK minimizedAffinity 0.799694836
REMARK minimizedRMSD -1
REMARK  1 active torsions:
REMARK  status: ('A' for Active; 'I' for Inactive)
REMARK    1  A    between atoms: C1_2  and  C2_3 
ROOT
ATOM      1  C2  UNL d   1      -1.246   1.215   1.767  0.00  0.00    -0.076 A 
ATOM      2  C3  UNL d   1      -1.740   1.931   0.663  0.00  0.00     0.004 A 
ATOM      3  C4  UNL d   1      -0.910   2.769  -0.079  0.00  0.00    -0.003 A 
ATOM      4  C5  UNL d   1       0.429   2.904   0.271  0.00  0.00     0.000 A 
ATOM      5  C6  UNL d   1       0.941   2.188   1.352  0.00  0.00     0.000 A 
ATOM      6  C7  UNL d   1       0.121   1.326   2.101  0.00  0.00    -0.073 A 
ATOM      7  C8  UNL d   1       0.724   0.583   3.261  0.00  0.00     0.078 C 
ENDROOT
BRANCH   1   8
ATOM      8  C1  UNL d   1      -2.200   0.342   2.551  0.00  0.00     0.053 C 
ATOM      9  C   UNL d   1      -3.227   1.152   3.326  0.00  0.00     0.018 C 
ENDBRANCH   1   8
TORSDOF 1
ENDMDL
