MODEL 1
REMARK minimizedAffinity 1.03648794
REMARK minimizedRMSD -1
REMARK  2 active torsions:
REMARK  status: ('A' for Active; 'I' for Inactive)
REMARK    1  A    between atoms: C2'_3  and  C1'_4 
REMARK    2  A    between atoms: C1'_4  and  C1_5 
ROOT
ATOM      1  C1  I4B d   1       0.622  -1.431   2.958  0.00  0.00    -0.075 A 
ATOM      2  C2  I4B d   1      -0.463  -1.867   2.239  0.00  0.00     0.003 A 
ATOM      3  C3  I4B d   1      -1.672  -1.131   2.255  0.00  0.00     0.002 A 
ATOM      4  C4  I4B d   1      -1.769  -0.000   3.039  0.00  0.00    -0.004 A 
ATOM      5  C5  I4B d   1      -0.661   0.454   3.750  0.00  0.00     0.002 A 
ATOM      6  C6  I4B d   1       0.545  -0.259   3.700  0.00  0.00     0.003 A 
ENDROOT
BRANCH   1   7
ATOM      7  C1' I4B d   1       1.873  -2.250   2.944  0.00  0.00     0.060 C 
BRANCH   7   8
ATOM      8  C2' I4B d   1       2.268  -2.475   1.499  0.00  0.00    -0.013 C 
ATOM      9  C4' I4B d   1       3.743  -2.250   1.295  0.00  0.00     0.013 C 
ATOM     10  C3' I4B d   1       1.877  -3.874   1.125  0.00  0.00     0.013 C 
ENDBRANCH   7   8
ENDBRANCH   1   7
TORSDOF 2
ENDMDL
