MODEL 1
REMARK minimizedAffinity 6.74430513
REMARK minimizedRMSD -1
REMARK  2 active torsions:
REMARK  status: ('A' for Active; 'I' for Inactive)
REMARK    1  A    between atoms: C2'_3  and  C1'_4 
REMARK    2  A    between atoms: C1'_4  and  C1_5 
ROOT
ATOM      1  C1  I4B d   1       0.848  -1.812   2.173  0.00  0.00    -0.075 A 
ATOM      2  C2  I4B d   1       1.443  -0.865   2.970  0.00  0.00     0.003 A 
ATOM      3  C3  I4B d   1       0.768  -0.370   4.112  0.00  0.00     0.002 A 
ATOM      4  C4  I4B d   1      -0.511  -0.808   4.389  0.00  0.00    -0.004 A 
ATOM      5  C5  I4B d   1      -1.102  -1.784   3.593  0.00  0.00     0.002 A 
ATOM      6  C6  I4B d   1      -0.414  -2.299   2.485  0.00  0.00     0.003 A 
ENDROOT
BRANCH   1   7
ATOM      7  C1' I4B d   1       1.576  -2.289   0.956  0.00  0.00     0.060 C 
BRANCH   7   8
ATOM      8  C2' I4B d   1       1.756  -1.107   0.026  0.00  0.00    -0.013 C 
ATOM      9  C4' I4B d   1       3.201  -0.690  -0.053  0.00  0.00     0.013 C 
ATOM     10  C3' I4B d   1       1.230  -1.495  -1.324  0.00  0.00     0.013 C 
ENDBRANCH   7   8
ENDBRANCH   1   7
TORSDOF 2
ENDMDL
