MODEL 1
REMARK minimizedAffinity 11.1004543
REMARK minimizedRMSD -1
REMARK  2 active torsions:
REMARK  status: ('A' for Active; 'I' for Inactive)
REMARK    1  A    between atoms: C2'_3  and  C1'_4 
REMARK    2  A    between atoms: C1'_4  and  C1_5 
ROOT
ATOM      1  C1  I4B d   1       0.108  -0.853  -1.560  0.00  0.00    -0.075 A 
ATOM      2  C2  I4B d   1       0.502   0.394  -1.978  0.00  0.00     0.003 A 
ATOM      3  C3  I4B d   1      -0.460   1.331  -2.427  0.00  0.00     0.002 A 
ATOM      4  C4  I4B d   1      -1.789   0.965  -2.488  0.00  0.00    -0.004 A 
ATOM      5  C5  I4B d   1      -2.189  -0.291  -2.041  0.00  0.00     0.002 A 
ATOM      6  C6  I4B d   1      -1.236  -1.202  -1.563  0.00  0.00     0.003 A 
ENDROOT
BRANCH   1   7
ATOM      7  C1' I4B d   1       1.154  -1.830  -1.123  0.00  0.00     0.060 C 
BRANCH   7   8
ATOM      8  C2' I4B d   1       1.379  -1.640   0.363  0.00  0.00    -0.013 C 
ATOM      9  C4' I4B d   1       1.164  -2.927   1.116  0.00  0.00     0.013 C 
ATOM     10  C3' I4B d   1       2.774  -1.125   0.558  0.00  0.00     0.013 C 
ENDBRANCH   7   8
ENDBRANCH   1   7
TORSDOF 2
ENDMDL
