MODEL 1
REMARK minimizedAffinity 0.580217898
REMARK minimizedRMSD -1
REMARK  2 active torsions:
REMARK  status: ('A' for Active; 'I' for Inactive)
REMARK    1  A    between atoms: C2'_3  and  C1'_4 
REMARK    2  A    between atoms: C1'_4  and  C1_5 
ROOT
ATOM      1  C1  I4B d   1       0.966  -1.472   1.502  0.00  0.00    -0.075 A 
ATOM      2  C2  I4B d   1      -0.041  -2.004   2.268  0.00  0.00     0.003 A 
ATOM      3  C3  I4B d   1      -0.882  -1.156   3.029  0.00  0.00     0.002 A 
ATOM      4  C4  I4B d   1      -0.650   0.204   3.035  0.00  0.00    -0.004 A 
ATOM      5  C5  I4B d   1       0.357   0.744   2.239  0.00  0.00     0.002 A 
ATOM      6  C6  I4B d   1       1.162  -0.098   1.458  0.00  0.00     0.003 A 
ENDROOT
BRANCH   1   7
ATOM      7  C1' I4B d   1       1.856  -2.399   0.737  0.00  0.00     0.060 C 
BRANCH   7   8
ATOM      8  C2' I4B d   1       2.107  -3.621   1.597  0.00  0.00    -0.013 C 
ATOM      9  C4' I4B d   1       2.345  -4.844   0.750  0.00  0.00     0.013 C 
ATOM     10  C3' I4B d   1       3.287  -3.333   2.476  0.00  0.00     0.013 C 
ENDBRANCH   7   8
ENDBRANCH   1   7
TORSDOF 2
ENDMDL
