MODEL 1
REMARK minimizedAffinity 5.24973583
REMARK minimizedRMSD -1
REMARK  2 active torsions:
REMARK  status: ('A' for Active; 'I' for Inactive)
REMARK    1  A    between atoms: C2'_3  and  C1'_4 
REMARK    2  A    between atoms: C1'_4  and  C1_5 
ROOT
ATOM      1  C1  I4B d   1       1.256  -2.050   2.073  0.00  0.00    -0.075 A 
ATOM      2  C2  I4B d   1       1.661  -1.535   0.867  0.00  0.00     0.003 A 
ATOM      3  C3  I4B d   1       2.493  -2.296   0.010  0.00  0.00     0.002 A 
ATOM      4  C4  I4B d   1       2.935  -3.537   0.420  0.00  0.00    -0.004 A 
ATOM      5  C5  I4B d   1       2.505  -4.067   1.633  0.00  0.00     0.002 A 
ATOM      6  C6  I4B d   1       1.650  -3.324   2.460  0.00  0.00     0.003 A 
ENDROOT
BRANCH   1   7
ATOM      7  C1' I4B d   1       0.404  -1.206   2.967  0.00  0.00     0.060 C 
BRANCH   7   8
ATOM      8  C2' I4B d   1      -1.045  -1.444   2.592  0.00  0.00    -0.013 C 
ATOM      9  C4' I4B d   1      -1.631  -2.588   3.378  0.00  0.00     0.013 C 
ATOM     10  C3' I4B d   1      -1.802  -0.174   2.839  0.00  0.00     0.013 C 
ENDBRANCH   7   8
ENDBRANCH   1   7
TORSDOF 2
ENDMDL
