MODEL 1
REMARK minimizedAffinity 7.6128068
REMARK minimizedRMSD -1
REMARK  2 active torsions:
REMARK  status: ('A' for Active; 'I' for Inactive)
REMARK    1  A    between atoms: C2'_3  and  C1'_4 
REMARK    2  A    between atoms: C1'_4  and  C1_5 
ROOT
ATOM      1  C1  I4B d   1       3.680  -2.161   0.745  0.00  0.00    -0.075 A 
ATOM      2  C2  I4B d   1       2.746  -1.384   0.107  0.00  0.00     0.003 A 
ATOM      3  C3  I4B d   1       1.366  -1.579   0.356  0.00  0.00     0.002 A 
ATOM      4  C4  I4B d   1       0.965  -2.589   1.207  0.00  0.00    -0.004 A 
ATOM      5  C5  I4B d   1       1.914  -3.361   1.871  0.00  0.00     0.002 A 
ATOM      6  C6  I4B d   1       3.280  -3.138   1.648  0.00  0.00     0.003 A 
ENDROOT
BRANCH   1   7
ATOM      7  C1' I4B d   1       5.128  -1.951   0.434  0.00  0.00     0.060 C 
BRANCH   7   8
ATOM      8  C2' I4B d   1       5.271  -0.591  -0.220  0.00  0.00    -0.013 C 
ATOM      9  C4' I4B d   1       6.000   0.372   0.680  0.00  0.00     0.013 C 
ATOM     10  C3' I4B d   1       5.999  -0.776  -1.518  0.00  0.00     0.013 C 
ENDBRANCH   7   8
ENDBRANCH   1   7
TORSDOF 2
ENDMDL
