MODEL 1
REMARK minimizedAffinity 5.33621407
REMARK minimizedRMSD -1
REMARK  2 active torsions:
REMARK  status: ('A' for Active; 'I' for Inactive)
REMARK    1  A    between atoms: C2'_3  and  C1'_4 
REMARK    2  A    between atoms: C1'_4  and  C1_5 
ROOT
ATOM      1  C1  I4B d   1      -0.234  -0.297  -0.280  0.00  0.00    -0.075 A 
ATOM      2  C2  I4B d   1      -1.441  -0.864   0.048  0.00  0.00     0.003 A 
ATOM      3  C3  I4B d   1      -2.650  -0.267  -0.385  0.00  0.00     0.002 A 
ATOM      4  C4  I4B d   1      -2.608   0.916  -1.094  0.00  0.00    -0.004 A 
ATOM      5  C5  I4B d   1      -1.383   1.478  -1.445  0.00  0.00     0.002 A 
ATOM      6  C6  I4B d   1      -0.188   0.861  -1.045  0.00  0.00     0.003 A 
ENDROOT
BRANCH   1   7
ATOM      7  C1' I4B d   1       1.022  -0.936   0.221  0.00  0.00     0.060 C 
BRANCH   7   8
ATOM      8  C2' I4B d   1       0.634  -2.004   1.224  0.00  0.00    -0.013 C 
ATOM      9  C4' I4B d   1       1.720  -3.038   1.366  0.00  0.00     0.013 C 
ATOM     10  C3' I4B d   1       0.354  -1.330   2.534  0.00  0.00     0.013 C 
ENDBRANCH   7   8
ENDBRANCH   1   7
TORSDOF 2
ENDMDL
