MODEL 1
REMARK minimizedAffinity 11.8859701
REMARK minimizedRMSD -1
REMARK  2 active torsions:
REMARK  status: ('A' for Active; 'I' for Inactive)
REMARK    1  A    between atoms: C2'_3  and  C1'_4 
REMARK    2  A    between atoms: C1'_4  and  C1_5 
ROOT
ATOM      1  C1  I4B d   1      -0.181  -1.381   3.032  0.00  0.00    -0.075 A 
ATOM      2  C2  I4B d   1      -0.015  -0.204   3.719  0.00  0.00     0.003 A 
ATOM      3  C3  I4B d   1      -1.126   0.636   3.972  0.00  0.00     0.002 A 
ATOM      4  C4  I4B d   1      -2.368   0.288   3.480  0.00  0.00    -0.004 A 
ATOM      5  C5  I4B d   1      -2.538  -0.916   2.804  0.00  0.00     0.002 A 
ATOM      6  C6  I4B d   1      -1.441  -1.763   2.589  0.00  0.00     0.003 A 
ENDROOT
BRANCH   1   7
ATOM      7  C1' I4B d   1       1.019  -2.229   2.754  0.00  0.00     0.060 C 
BRANCH   7   8
ATOM      8  C2' I4B d   1       1.028  -2.554   1.274  0.00  0.00    -0.013 C 
ATOM      9  C4' I4B d   1       1.804  -1.526   0.495  0.00  0.00     0.013 C 
ATOM     10  C3' I4B d   1       1.619  -3.922   1.104  0.00  0.00     0.013 C 
ENDBRANCH   7   8
ENDBRANCH   1   7
TORSDOF 2
ENDMDL
