MODEL 1
REMARK minimizedAffinity -0.366225541
REMARK minimizedRMSD -1
REMARK  2 active torsions:
REMARK  status: ('A' for Active; 'I' for Inactive)
REMARK    1  A    between atoms: C2'_3  and  C1'_4 
REMARK    2  A    between atoms: C1'_4  and  C1_5 
ROOT
ATOM      1  C1  I4B d   1      -0.837  -1.027   2.509  0.00  0.00    -0.075 A 
ATOM      2  C2  I4B d   1      -1.360  -0.301   3.550  0.00  0.00     0.003 A 
ATOM      3  C3  I4B d   1      -2.662   0.247   3.453  0.00  0.00     0.002 A 
ATOM      4  C4  I4B d   1      -3.381   0.090   2.286  0.00  0.00    -0.004 A 
ATOM      5  C5  I4B d   1      -2.858  -0.665   1.240  0.00  0.00     0.002 A 
ATOM      6  C6  I4B d   1      -1.583  -1.238   1.357  0.00  0.00     0.003 A 
ENDROOT
BRANCH   1   7
ATOM      7  C1' I4B d   1       0.554  -1.563   2.632  0.00  0.00     0.060 C 
BRANCH   7   8
ATOM      8  C2' I4B d   1       0.848  -2.384   1.393  0.00  0.00    -0.013 C 
ATOM      9  C4' I4B d   1       1.333  -1.513   0.264  0.00  0.00     0.013 C 
ATOM     10  C3' I4B d   1       1.871  -3.420   1.756  0.00  0.00     0.013 C 
ENDBRANCH   7   8
ENDBRANCH   1   7
TORSDOF 2
ENDMDL
