MODEL 1
REMARK minimizedAffinity -3.03751421
REMARK minimizedRMSD -1
REMARK  0 active torsions:
REMARK  status: ('A' for Active; 'I' for Inactive)
ROOT
ATOM      1  C2' OXE d   1       4.208  -1.008  -1.022  0.00  0.00     0.078 C 
ATOM      2  C1' OXE d   1       2.368  -3.094  -0.643  0.00  0.00     0.078 C 
ATOM      3  C1  OXE d   1       1.937  -1.699  -0.266  0.00  0.00    -0.078 A 
ATOM      4  C2  OXE d   1       2.860  -0.691  -0.411  0.00  0.00    -0.078 A 
ATOM      5  C3  OXE d   1       2.496   0.623  -0.129  0.00  0.00     0.003 A 
ATOM      6  C4  OXE d   1       1.251   0.906   0.446  0.00  0.00    -0.002 A 
ATOM      7  C5  OXE d   1       0.311  -0.112   0.639  0.00  0.00    -0.002 A 
ATOM      8  C6  OXE d   1       0.622  -1.410   0.250  0.00  0.00     0.003 A 
ENDROOT
TORSDOF 0
ENDMDL
