MODEL 1
REMARK minimizedAffinity -6.36993837
REMARK minimizedRMSD -1
REMARK  0 active torsions:
REMARK  status: ('A' for Active; 'I' for Inactive)
ROOT
ATOM      1  C2' OXE d   1       1.352   2.243  -0.058  0.00  0.00     0.078 C 
ATOM      2  C1' OXE d   1       0.631  -0.350   0.740  0.00  0.00     0.078 C 
ATOM      3  C1  OXE d   1       1.779  -0.206  -0.227  0.00  0.00    -0.078 A 
ATOM      4  C2  OXE d   1       2.095   1.064  -0.648  0.00  0.00    -0.078 A 
ATOM      5  C3  OXE d   1       3.181   1.258  -1.497  0.00  0.00     0.003 A 
ATOM      6  C4  OXE d   1       3.857   0.162  -2.046  0.00  0.00    -0.002 A 
ATOM      7  C5  OXE d   1       3.525  -1.142  -1.661  0.00  0.00    -0.002 A 
ATOM      8  C6  OXE d   1       2.519  -1.340  -0.722  0.00  0.00     0.003 A 
ENDROOT
TORSDOF 0
ENDMDL
