MODEL 1
REMARK minimizedAffinity -5.94026518
REMARK minimizedRMSD -1
REMARK  0 active torsions:
REMARK  status: ('A' for Active; 'I' for Inactive)
ROOT
ATOM      1  C2' OXE d   1       3.348   1.633  -0.897  0.00  0.00     0.078 C 
ATOM      2  C1' OXE d   1       4.513  -0.887  -1.315  0.00  0.00     0.078 C 
ATOM      3  C1  OXE d   1       3.159  -0.839  -0.652  0.00  0.00    -0.078 A 
ATOM      4  C2  OXE d   1       2.618   0.400  -0.409  0.00  0.00    -0.078 A 
ATOM      5  C3  OXE d   1       1.347   0.500   0.150  0.00  0.00     0.003 A 
ATOM      6  C4  OXE d   1       0.682  -0.644   0.608  0.00  0.00    -0.002 A 
ATOM      7  C5  OXE d   1       1.234  -1.914   0.406  0.00  0.00    -0.002 A 
ATOM      8  C6  OXE d   1       2.449  -2.031  -0.259  0.00  0.00     0.003 A 
ENDROOT
TORSDOF 0
ENDMDL
