MODEL 1
REMARK minimizedAffinity -3.59505701
REMARK minimizedRMSD -1
REMARK  0 active torsions:
REMARK  status: ('A' for Active; 'I' for Inactive)
ROOT
ATOM      1  C2' OXE d   1       0.508  -1.426   1.156  0.00  0.00     0.078 C 
ATOM      2  C1' OXE d   1       1.501   1.197   1.286  0.00  0.00     0.078 C 
ATOM      3  C1  OXE d   1       1.937   0.336   0.126  0.00  0.00    -0.078 A 
ATOM      4  C2  OXE d   1       1.483  -0.961   0.096  0.00  0.00    -0.078 A 
ATOM      5  C3  OXE d   1       1.810  -1.781  -0.980  0.00  0.00     0.003 A 
ATOM      6  C4  OXE d   1       2.721  -1.346  -1.951  0.00  0.00    -0.002 A 
ATOM      7  C5  OXE d   1       3.226  -0.042  -1.917  0.00  0.00    -0.002 A 
ATOM      8  C6  OXE d   1       2.812   0.823  -0.911  0.00  0.00     0.003 A 
ENDROOT
TORSDOF 0
ENDMDL
