MODEL 1
REMARK minimizedAffinity -1.49953234
REMARK minimizedRMSD -1
REMARK  0 active torsions:
REMARK  status: ('A' for Active; 'I' for Inactive)
ROOT
ATOM      1  C2' OXE d   1       3.802  -0.317  -1.613  0.00  0.00     0.078 C 
ATOM      2  C1' OXE d   1       1.724   1.567  -1.490  0.00  0.00     0.078 C 
ATOM      3  C1  OXE d   1       1.730   0.458  -0.467  0.00  0.00    -0.078 A 
ATOM      4  C2  OXE d   1       2.725  -0.486  -0.564  0.00  0.00    -0.078 A 
ATOM      5  C3  OXE d   1       2.808  -1.499   0.387  0.00  0.00     0.003 A 
ATOM      6  C4  OXE d   1       1.802  -1.654   1.348  0.00  0.00    -0.002 A 
ATOM      7  C5  OXE d   1       0.758  -0.726   1.439  0.00  0.00    -0.002 A 
ATOM      8  C6  OXE d   1       0.731   0.357   0.568  0.00  0.00     0.003 A 
ENDROOT
TORSDOF 0
ENDMDL
