MODEL 1
REMARK minimizedAffinity -1.51126838
REMARK minimizedRMSD -1
REMARK  0 active torsions:
REMARK  status: ('A' for Active; 'I' for Inactive)
ROOT
ATOM      1  C2' OXE d   1       0.247  -1.187   0.728  0.00  0.00     0.078 C 
ATOM      2  C1' OXE d   1       1.241   1.432   0.546  0.00  0.00     0.078 C 
ATOM      3  C1  OXE d   1       1.970   0.348  -0.210  0.00  0.00    -0.078 A 
ATOM      4  C2  OXE d   1       1.504  -0.938  -0.077  0.00  0.00    -0.078 A 
ATOM      5  C3  OXE d   1       2.106  -1.966  -0.796  0.00  0.00     0.003 A 
ATOM      6  C4  OXE d   1       3.274  -1.729  -1.530  0.00  0.00    -0.002 A 
ATOM      7  C5  OXE d   1       3.789  -0.433  -1.646  0.00  0.00    -0.002 A 
ATOM      8  C6  OXE d   1       3.125   0.621  -1.028  0.00  0.00     0.003 A 
ENDROOT
TORSDOF 0
ENDMDL
