MODEL 1
REMARK minimizedAffinity 1.06210983
REMARK minimizedRMSD -1
REMARK  0 active torsions:
REMARK  status: ('A' for Active; 'I' for Inactive)
ROOT
ATOM      1  C2' OXE d   1       4.560  -0.612  -2.556  0.00  0.00     0.078 C 
ATOM      2  C1' OXE d   1       3.384   1.915  -2.215  0.00  0.00     0.078 C 
ATOM      3  C1  OXE d   1       2.800   0.757  -1.445  0.00  0.00    -0.078 A 
ATOM      4  C2  OXE d   1       3.352  -0.484  -1.653  0.00  0.00    -0.078 A 
ATOM      5  C3  OXE d   1       2.887  -1.576  -0.927  0.00  0.00     0.003 A 
ATOM      6  C4  OXE d   1       1.763  -1.452  -0.101  0.00  0.00    -0.002 A 
ATOM      7  C5  OXE d   1       1.161  -0.204   0.095  0.00  0.00    -0.002 A 
ATOM      8  C6  OXE d   1       1.693   0.916  -0.535  0.00  0.00     0.003 A 
ENDROOT
TORSDOF 0
ENDMDL
