MODEL 1
REMARK minimizedAffinity -1.62597418
REMARK minimizedRMSD -1
REMARK  0 active torsions:
REMARK  status: ('A' for Active; 'I' for Inactive)
ROOT
ATOM      1  C2' OXE d   1       0.391  -1.108   0.652  0.00  0.00     0.078 C 
ATOM      2  C1' OXE d   1       1.316   1.508   0.229  0.00  0.00     0.078 C 
ATOM      3  C1  OXE d   1       2.110   0.375  -0.373  0.00  0.00    -0.078 A 
ATOM      4  C2  OXE d   1       1.676  -0.904  -0.121  0.00  0.00    -0.078 A 
ATOM      5  C3  OXE d   1       2.340  -1.983  -0.698  0.00  0.00     0.003 A 
ATOM      6  C4  OXE d   1       3.534  -1.786  -1.404  0.00  0.00    -0.002 A 
ATOM      7  C5  OXE d   1       4.015  -0.493  -1.637  0.00  0.00    -0.002 A 
ATOM      8  C6  OXE d   1       3.294   0.598  -1.166  0.00  0.00     0.003 A 
ENDROOT
TORSDOF 0
ENDMDL
