MODEL 1
REMARK minimizedAffinity -0.532647431
REMARK minimizedRMSD -1
REMARK  0 active torsions:
REMARK  status: ('A' for Active; 'I' for Inactive)
ROOT
ATOM      1  C2' OXE d   1       4.360  -1.097  -1.864  0.00  0.00     0.078 C 
ATOM      2  C1' OXE d   1       3.516   1.561  -1.543  0.00  0.00     0.078 C 
ATOM      3  C1  OXE d   1       2.774   0.491  -0.782  0.00  0.00    -0.078 A 
ATOM      4  C2  OXE d   1       3.164  -0.812  -0.981  0.00  0.00    -0.078 A 
ATOM      5  C3  OXE d   1       2.550  -1.833  -0.261  0.00  0.00     0.003 A 
ATOM      6  C4  OXE d   1       1.439  -1.562   0.546  0.00  0.00    -0.002 A 
ATOM      7  C5  OXE d   1       1.000  -0.247   0.731  0.00  0.00    -0.002 A 
ATOM      8  C6  OXE d   1       1.682   0.793   0.110  0.00  0.00     0.003 A 
ENDROOT
TORSDOF 0
ENDMDL
