MODEL 1
REMARK minimizedAffinity -2.12537026
REMARK minimizedRMSD -1
REMARK  0 active torsions:
REMARK  status: ('A' for Active; 'I' for Inactive)
ROOT
ATOM      1  C2' OXE d   1       4.528  -0.495  -1.938  0.00  0.00     0.078 C 
ATOM      2  C1' OXE d   1       3.336   2.023  -1.595  0.00  0.00     0.078 C 
ATOM      3  C1  OXE d   1       2.720   0.849  -0.875  0.00  0.00    -0.078 A 
ATOM      4  C2  OXE d   1       3.282  -0.387  -1.086  0.00  0.00    -0.078 A 
ATOM      5  C3  OXE d   1       2.787  -1.494  -0.403  0.00  0.00     0.003 A 
ATOM      6  C4  OXE d   1       1.628  -1.387   0.375  0.00  0.00    -0.002 A 
ATOM      7  C5  OXE d   1       1.017  -0.145   0.571  0.00  0.00    -0.002 A 
ATOM      8  C6  OXE d   1       1.574   0.988  -0.011  0.00  0.00     0.003 A 
ENDROOT
TORSDOF 0
ENDMDL
