MODEL 1
REMARK minimizedAffinity 4.41916609
REMARK minimizedRMSD -1
REMARK  0 active torsions:
REMARK  status: ('A' for Active; 'I' for Inactive)
ROOT
ATOM      1  C2' OXE d   1       0.343  -2.287   0.844  0.00  0.00     0.078 C 
ATOM      2  C1' OXE d   1       2.383  -2.084  -1.074  0.00  0.00     0.078 C 
ATOM      3  C1  OXE d   1       1.989  -0.832  -0.331  0.00  0.00    -0.078 A 
ATOM      4  C2  OXE d   1       0.958  -0.931   0.572  0.00  0.00    -0.078 A 
ATOM      5  C3  OXE d   1       0.591   0.182   1.324  0.00  0.00     0.003 A 
ATOM      6  C4  OXE d   1       1.158   1.434   1.060  0.00  0.00    -0.002 A 
ATOM      7  C5  OXE d   1       2.182   1.565   0.115  0.00  0.00    -0.002 A 
ATOM      8  C6  OXE d   1       2.637   0.436  -0.557  0.00  0.00     0.003 A 
ENDROOT
TORSDOF 0
ENDMDL
