MODEL 1
REMARK minimizedAffinity 0.03084388
REMARK minimizedRMSD -1
REMARK  0 active torsions:
REMARK  status: ('A' for Active; 'I' for Inactive)
ROOT
ATOM      1  C2' OXE d   1       0.778  -1.022   1.327  0.00  0.00     0.078 C 
ATOM      2  C1' OXE d   1       0.921   1.314  -0.224  0.00  0.00     0.078 C 
ATOM      3  C1  OXE d   1       1.939   0.233  -0.485  0.00  0.00    -0.078 A 
ATOM      4  C2  OXE d   1       1.891  -0.887   0.310  0.00  0.00    -0.078 A 
ATOM      5  C3  OXE d   1       2.773  -1.938   0.075  0.00  0.00     0.003 A 
ATOM      6  C4  OXE d   1       3.806  -1.801  -0.860  0.00  0.00    -0.002 A 
ATOM      7  C5  OXE d   1       3.897  -0.652  -1.653  0.00  0.00    -0.002 A 
ATOM      8  C6  OXE d   1       2.949   0.354  -1.508  0.00  0.00     0.003 A 
ENDROOT
TORSDOF 0
ENDMDL
