MODEL 1
REMARK minimizedAffinity -2.30607462
REMARK minimizedRMSD -1
REMARK  0 active torsions:
REMARK  status: ('A' for Active; 'I' for Inactive)
ROOT
ATOM      1  C2' OXE d   1       4.708  -0.844  -1.994  0.00  0.00     0.078 C 
ATOM      2  C1' OXE d   1       3.501   1.687  -1.867  0.00  0.00     0.078 C 
ATOM      3  C1  OXE d   1       2.860   0.563  -1.092  0.00  0.00    -0.078 A 
ATOM      4  C2  OXE d   1       3.431  -0.683  -1.198  0.00  0.00    -0.078 A 
ATOM      5  C3  OXE d   1       2.912  -1.744  -0.461  0.00  0.00     0.003 A 
ATOM      6  C4  OXE d   1       1.725  -1.589   0.265  0.00  0.00    -0.002 A 
ATOM      7  C5  OXE d   1       1.105  -0.338   0.353  0.00  0.00    -0.002 A 
ATOM      8  C6  OXE d   1       1.683   0.755  -0.283  0.00  0.00     0.003 A 
ENDROOT
TORSDOF 0
ENDMDL
