MODEL 1
REMARK minimizedAffinity -0.203088179
REMARK minimizedRMSD -1
REMARK  0 active torsions:
REMARK  status: ('A' for Active; 'I' for Inactive)
ROOT
ATOM      1  C2' OXE d   1       1.248  -1.130   0.738  0.00  0.00     0.078 C 
ATOM      2  C1' OXE d   1       2.010   1.491   0.083  0.00  0.00     0.078 C 
ATOM      3  C1  OXE d   1       2.621   0.362  -0.709  0.00  0.00    -0.078 A 
ATOM      4  C2  OXE d   1       2.278  -0.919  -0.351  0.00  0.00    -0.078 A 
ATOM      5  C3  OXE d   1       2.770  -1.995  -1.084  0.00  0.00     0.003 A 
ATOM      6  C4  OXE d   1       3.730  -1.792  -2.083  0.00  0.00    -0.002 A 
ATOM      7  C5  OXE d   1       4.123  -0.497  -2.437  0.00  0.00    -0.002 A 
ATOM      8  C6  OXE d   1       3.548   0.590  -1.790  0.00  0.00     0.003 A 
ENDROOT
TORSDOF 0
ENDMDL
