MODEL 1
REMARK minimizedAffinity -3.88015747
REMARK minimizedRMSD -1
REMARK  0 active torsions:
REMARK  status: ('A' for Active; 'I' for Inactive)
ROOT
ATOM      1  C2' OXE d   1       1.353  -2.510   0.850  0.00  0.00     0.078 C 
ATOM      2  C1' OXE d   1       0.494   0.155   1.059  0.00  0.00     0.078 C 
ATOM      3  C1  OXE d   1       1.599  -0.153   0.080  0.00  0.00    -0.078 A 
ATOM      4  C2  OXE d   1       2.045  -1.452   0.018  0.00  0.00    -0.078 A 
ATOM      5  C3  OXE d   1       3.025  -1.801  -0.907  0.00  0.00     0.003 A 
ATOM      6  C4  OXE d   1       3.667  -0.815  -1.666  0.00  0.00    -0.002 A 
ATOM      7  C5  OXE d   1       3.256   0.520  -1.589  0.00  0.00    -0.002 A 
ATOM      8  C6  OXE d   1       2.197   0.860  -0.754  0.00  0.00     0.003 A 
ENDROOT
TORSDOF 0
ENDMDL
