MODEL 1
REMARK minimizedAffinity -2.91775274
REMARK minimizedRMSD -1
REMARK  0 active torsions:
REMARK  status: ('A' for Active; 'I' for Inactive)
ROOT
ATOM      1  C2' OXE d   1      -0.220  -0.419   0.886  0.00  0.00     0.078 C 
ATOM      2  C1' OXE d   1       1.684  -2.471   0.674  0.00  0.00     0.078 C 
ATOM      3  C1  OXE d   1       1.920  -1.208  -0.116  0.00  0.00    -0.078 A 
ATOM      4  C2  OXE d   1       0.960  -0.228  -0.042  0.00  0.00    -0.078 A 
ATOM      5  C3  OXE d   1       1.155   0.979  -0.708  0.00  0.00     0.003 A 
ATOM      6  C4  OXE d   1       2.244   1.144  -1.573  0.00  0.00    -0.002 A 
ATOM      7  C5  OXE d   1       3.213   0.142  -1.693  0.00  0.00    -0.002 A 
ATOM      8  C6  OXE d   1       3.088  -1.020  -0.940  0.00  0.00     0.003 A 
ENDROOT
TORSDOF 0
ENDMDL
