MODEL 1
REMARK minimizedAffinity -3.74217916
REMARK minimizedRMSD -1
REMARK  0 active torsions:
REMARK  status: ('A' for Active; 'I' for Inactive)
ROOT
ATOM      1  C2' OXE d   1       3.332  -1.767  -1.944  0.00  0.00     0.078 C 
ATOM      2  C1' OXE d   1       2.951   1.013  -1.875  0.00  0.00     0.078 C 
ATOM      3  C1  OXE d   1       2.295   0.186  -0.797  0.00  0.00    -0.078 A 
ATOM      4  C2  OXE d   1       2.448  -1.178  -0.866  0.00  0.00    -0.078 A 
ATOM      5  C3  OXE d   1       1.910  -1.984   0.133  0.00  0.00     0.003 A 
ATOM      6  C4  OXE d   1       1.085  -1.432   1.121  0.00  0.00    -0.002 A 
ATOM      7  C5  OXE d   1       0.883  -0.049   1.186  0.00  0.00    -0.002 A 
ATOM      8  C6  OXE d   1       1.514   0.776   0.262  0.00  0.00     0.003 A 
ENDROOT
TORSDOF 0
ENDMDL
