MODEL 1
REMARK minimizedAffinity -0.799893677
REMARK minimizedRMSD -1
REMARK  0 active torsions:
REMARK  status: ('A' for Active; 'I' for Inactive)
ROOT
ATOM      1  C2' OXE d   1       3.670   1.825  -1.139  0.00  0.00     0.078 C 
ATOM      2  C1' OXE d   1       4.789  -0.705  -1.616  0.00  0.00     0.078 C 
ATOM      3  C1  OXE d   1       3.463  -0.646  -0.899  0.00  0.00    -0.078 A 
ATOM      4  C2  OXE d   1       2.946   0.598  -0.629  0.00  0.00    -0.078 A 
ATOM      5  C3  OXE d   1       1.699   0.708  -0.019  0.00  0.00     0.003 A 
ATOM      6  C4  OXE d   1       1.041  -0.431   0.459  0.00  0.00    -0.002 A 
ATOM      7  C5  OXE d   1       1.570  -1.706   0.229  0.00  0.00    -0.002 A 
ATOM      8  C6  OXE d   1       2.756  -1.832  -0.484  0.00  0.00     0.003 A 
ENDROOT
TORSDOF 0
ENDMDL
