MODEL 1
REMARK minimizedAffinity -4.24606085
REMARK minimizedRMSD -1
REMARK  0 active torsions:
REMARK  status: ('A' for Active; 'I' for Inactive)
ROOT
ATOM      1  C2' OXE d   1       4.925  -0.555  -2.119  0.00  0.00     0.078 C 
ATOM      2  C1' OXE d   1       3.762   1.939  -1.563  0.00  0.00     0.078 C 
ATOM      3  C1  OXE d   1       3.042   0.704  -1.083  0.00  0.00    -0.078 A 
ATOM      4  C2  OXE d   1       3.594  -0.514  -1.400  0.00  0.00    -0.078 A 
ATOM      5  C3  OXE d   1       2.999  -1.683  -0.934  0.00  0.00     0.003 A 
ATOM      6  C4  OXE d   1       1.763  -1.636  -0.279  0.00  0.00    -0.002 A 
ATOM      7  C5  OXE d   1       1.163  -0.408   0.019  0.00  0.00    -0.002 A 
ATOM      8  C6  OXE d   1       1.809   0.770  -0.337  0.00  0.00     0.003 A 
ENDROOT
TORSDOF 0
ENDMDL
