MODEL 1
REMARK minimizedAffinity -0.650273263
REMARK minimizedRMSD -1
REMARK  0 active torsions:
REMARK  status: ('A' for Active; 'I' for Inactive)
ROOT
ATOM      1  C2' OXE d   1       2.816   0.336  -2.100  0.00  0.00     0.078 C 
ATOM      2  C1' OXE d   1       2.867  -2.233  -0.970  0.00  0.00     0.078 C 
ATOM      3  C1  OXE d   1       2.103  -1.158  -0.239  0.00  0.00    -0.078 A 
ATOM      4  C2  OXE d   1       2.123   0.107  -0.775  0.00  0.00    -0.078 A 
ATOM      5  C3  OXE d   1       1.389   1.124  -0.170  0.00  0.00     0.003 A 
ATOM      6  C4  OXE d   1       0.758   0.907   1.061  0.00  0.00    -0.002 A 
ATOM      7  C5  OXE d   1       0.759  -0.365   1.645  0.00  0.00    -0.002 A 
ATOM      8  C6  OXE d   1       1.390  -1.416   0.988  0.00  0.00     0.003 A 
ENDROOT
TORSDOF 0
ENDMDL
