MODEL 1
REMARK minimizedAffinity 3.40065527
REMARK minimizedRMSD -1
REMARK  0 active torsions:
REMARK  status: ('A' for Active; 'I' for Inactive)
ROOT
ATOM      1  C   UNL d   1       0.093   2.335  -0.003  0.00  0.00     0.078 C 
ATOM      2  C1  UNL d   1       0.116   3.570  -0.852  0.00  0.00    -0.077 A 
ATOM      3  C2  UNL d   1       0.987   4.628  -0.564  0.00  0.00    -0.001 A 
ATOM      4  C3  UNL d   1       0.990   5.776  -1.357  0.00  0.00     0.003 A 
ATOM      5  C4  UNL d   1       0.124   5.879  -2.444  0.00  0.00    -0.005 A 
ATOM      6  C5  UNL d   1      -0.748   4.832  -2.738  0.00  0.00     0.003 A 
ATOM      7  C6  UNL d   1      -0.753   3.683  -1.945  0.00  0.00    -0.001 A 
ENDROOT
TORSDOF 0
ENDMDL
