MODEL 1
REMARK minimizedAffinity 4.61861277
REMARK minimizedRMSD -1
REMARK  0 active torsions:
REMARK  status: ('A' for Active; 'I' for Inactive)
ROOT
ATOM      1  C   UNL d   1       0.675   5.740  -4.174  0.00  0.00     0.078 C 
ATOM      2  C1  UNL d   1       0.092   5.311  -2.861  0.00  0.00    -0.077 A 
ATOM      3  C2  UNL d   1      -1.231   5.620  -2.524  0.00  0.00    -0.001 A 
ATOM      4  C3  UNL d   1      -1.758   5.223  -1.294  0.00  0.00     0.003 A 
ATOM      5  C4  UNL d   1      -0.968   4.515  -0.390  0.00  0.00    -0.005 A 
ATOM      6  C5  UNL d   1       0.351   4.204  -0.716  0.00  0.00     0.003 A 
ATOM      7  C6  UNL d   1       0.879   4.601  -1.945  0.00  0.00    -0.001 A 
ENDROOT
TORSDOF 0
ENDMDL
