MODEL 1
REMARK minimizedAffinity -0.812132239
REMARK minimizedRMSD -1
REMARK  0 active torsions:
REMARK  status: ('A' for Active; 'I' for Inactive)
ROOT
ATOM      1  C   UNL d   1      -2.436   5.686   1.546  0.00  0.00     0.078 C 
ATOM      2  C1  UNL d   1      -1.750   4.811   0.541  0.00  0.00    -0.077 A 
ATOM      3  C2  UNL d   1      -1.693   5.173  -0.811  0.00  0.00    -0.001 A 
ATOM      4  C3  UNL d   1      -1.058   4.344  -1.738  0.00  0.00     0.003 A 
ATOM      5  C4  UNL d   1      -0.477   3.147  -1.323  0.00  0.00    -0.005 A 
ATOM      6  C5  UNL d   1      -0.531   2.777   0.019  0.00  0.00     0.003 A 
ATOM      7  C6  UNL d   1      -1.165   3.605   0.947  0.00  0.00    -0.001 A 
ENDROOT
TORSDOF 0
ENDMDL
