MODEL 1
REMARK minimizedAffinity 8.85276127
REMARK minimizedRMSD -1
REMARK  0 active torsions:
REMARK  status: ('A' for Active; 'I' for Inactive)
ROOT
ATOM      1  C   UNL d   1       0.517  -1.128   4.644  0.00  0.00     0.078 C 
ATOM      2  C1  UNL d   1       0.731   0.073   3.771  0.00  0.00    -0.077 A 
ATOM      3  C2  UNL d   1       2.012   0.420   3.324  0.00  0.00    -0.001 A 
ATOM      4  C3  UNL d   1       2.198   1.546   2.520  0.00  0.00     0.003 A 
ATOM      5  C4  UNL d   1       1.108   2.334   2.157  0.00  0.00    -0.005 A 
ATOM      6  C5  UNL d   1      -0.170   1.998   2.599  0.00  0.00     0.003 A 
ATOM      7  C6  UNL d   1      -0.358   0.872   3.403  0.00  0.00    -0.001 A 
ENDROOT
TORSDOF 0
ENDMDL
