MODEL 1
REMARK minimizedAffinity 5.82804489
REMARK minimizedRMSD -1
REMARK  0 active torsions:
REMARK  status: ('A' for Active; 'I' for Inactive)
ROOT
ATOM      1  C   UNL d   1       0.561   1.939   3.812  0.00  0.00     0.078 C 
ATOM      2  C1  UNL d   1       1.095   2.630   2.593  0.00  0.00    -0.077 A 
ATOM      3  C2  UNL d   1       0.285   2.838   1.470  0.00  0.00    -0.001 A 
ATOM      4  C3  UNL d   1       0.797   3.473   0.338  0.00  0.00     0.003 A 
ATOM      5  C4  UNL d   1       2.122   3.905   0.317  0.00  0.00    -0.005 A 
ATOM      6  C5  UNL d   1       2.936   3.700   1.429  0.00  0.00     0.003 A 
ATOM      7  C6  UNL d   1       2.425   3.065   2.562  0.00  0.00    -0.001 A 
ENDROOT
TORSDOF 0
ENDMDL
