MODEL 1
REMARK minimizedAffinity 1.53679371
REMARK minimizedRMSD -1
REMARK  0 active torsions:
REMARK  status: ('A' for Active; 'I' for Inactive)
ROOT
ATOM      1  C   UNL d   1       1.129  -1.645   4.788  0.00  0.00     0.078 C 
ATOM      2  C1  UNL d   1       0.954  -0.421   3.939  0.00  0.00    -0.077 A 
ATOM      3  C2  UNL d   1       1.990   0.041   3.118  0.00  0.00    -0.001 A 
ATOM      4  C3  UNL d   1       1.817   1.187   2.341  0.00  0.00     0.003 A 
ATOM      5  C4  UNL d   1       0.609   1.881   2.377  0.00  0.00    -0.005 A 
ATOM      6  C5  UNL d   1      -0.427   1.430   3.192  0.00  0.00     0.003 A 
ATOM      7  C6  UNL d   1      -0.255   0.284   3.970  0.00  0.00    -0.001 A 
ENDROOT
TORSDOF 0
ENDMDL
