MODEL 1
REMARK minimizedAffinity 5.81064892
REMARK minimizedRMSD -1
REMARK  0 active torsions:
REMARK  status: ('A' for Active; 'I' for Inactive)
ROOT
ATOM      1  C   UNL d   1      -0.688   4.563  -2.017  0.00  0.00     0.078 C 
ATOM      2  C1  UNL d   1      -0.157   4.018  -0.725  0.00  0.00    -0.077 A 
ATOM      3  C2  UNL d   1       1.001   4.546  -0.141  0.00  0.00    -0.001 A 
ATOM      4  C3  UNL d   1       1.489   4.023   1.057  0.00  0.00     0.003 A 
ATOM      5  C4  UNL d   1       0.827   2.967   1.681  0.00  0.00    -0.005 A 
ATOM      6  C5  UNL d   1      -0.325   2.433   1.106  0.00  0.00     0.003 A 
ATOM      7  C6  UNL d   1      -0.814   2.956  -0.092  0.00  0.00    -0.001 A 
ENDROOT
TORSDOF 0
ENDMDL
