MODEL 1
REMARK minimizedAffinity -2.49459696
REMARK minimizedRMSD -1
REMARK  0 active torsions:
REMARK  status: ('A' for Active; 'I' for Inactive)
ROOT
ATOM      1  C1  DEN d   1       0.769  -2.015   0.987  0.00  0.00     0.130 A 
ATOM      2  C2  DEN d   1       2.202  -2.294   0.959  0.00  0.00    -0.031 A 
ATOM      3  C3  DEN d   1       2.908  -1.029   0.675  0.00  0.00     0.027 A 
ATOM      4  C4  DEN d   1       1.927   1.324   0.283  0.00  0.00     0.027 A 
ATOM      5  C5  DEN d   1       0.762   2.055   0.197  0.00  0.00    -0.003 A 
ATOM      6  C6  DEN d   1      -0.473   1.479   0.334  0.00  0.00     0.001 A 
ATOM      7  C7  DEN d   1      -0.571   0.140   0.609  0.00  0.00     0.017 A 
ATOM      8  C8  DEN d   1       0.599  -0.604   0.689  0.00  0.00    -0.094 A 
ATOM      9  C9  DEN d   1       1.838  -0.001   0.560  0.00  0.00    -0.072 A 
ENDROOT
TORSDOF 0
ENDMDL
