MODEL 1
REMARK minimizedAffinity -5.94129276
REMARK minimizedRMSD -1
REMARK  0 active torsions:
REMARK  status: ('A' for Active; 'I' for Inactive)
ROOT
ATOM      1  C1  DEN d   1      -1.061   0.154   0.673  0.00  0.00     0.130 A 
ATOM      2  C2  DEN d   1      -0.776   1.125  -0.380  0.00  0.00    -0.031 A 
ATOM      3  C3  DEN d   1       0.485   0.728  -1.037  0.00  0.00     0.027 A 
ATOM      4  C4  DEN d   1       2.013  -1.288  -0.533  0.00  0.00     0.027 A 
ATOM      5  C5  DEN d   1       2.191  -2.386   0.279  0.00  0.00    -0.003 A 
ATOM      6  C6  DEN d   1       1.323  -2.693   1.293  0.00  0.00     0.001 A 
ATOM      7  C7  DEN d   1       0.211  -1.918   1.493  0.00  0.00     0.017 A 
ATOM      8  C8  DEN d   1       0.029  -0.805   0.683  0.00  0.00    -0.094 A 
ATOM      9  C9  DEN d   1       0.912  -0.518  -0.345  0.00  0.00    -0.072 A 
ENDROOT
TORSDOF 0
ENDMDL
