MODEL 1
REMARK minimizedAffinity -4.58505821
REMARK minimizedRMSD -1
REMARK  0 active torsions:
REMARK  status: ('A' for Active; 'I' for Inactive)
ROOT
ATOM      1  C1  DEN d   1       0.575  -2.509   1.211  0.00  0.00     0.130 A 
ATOM      2  C2  DEN d   1       1.618  -2.694   0.205  0.00  0.00    -0.031 A 
ATOM      3  C3  DEN d   1       1.695  -1.461  -0.604  0.00  0.00     0.027 A 
ATOM      4  C4  DEN d   1       0.311   0.706  -0.396  0.00  0.00     0.027 A 
ATOM      5  C5  DEN d   1      -0.701   1.329   0.301  0.00  0.00    -0.003 A 
ATOM      6  C6  DEN d   1      -1.375   0.709   1.319  0.00  0.00     0.001 A 
ATOM      7  C7  DEN d   1      -1.016  -0.557   1.700  0.00  0.00     0.017 A 
ATOM      8  C8  DEN d   1      -0.002  -1.194   0.997  0.00  0.00    -0.094 A 
ATOM      9  C9  DEN d   1       0.676  -0.546  -0.021  0.00  0.00    -0.072 A 
ENDROOT
TORSDOF 0
ENDMDL
