MODEL 1
REMARK minimizedAffinity -3.75744581
REMARK minimizedRMSD -1
REMARK  0 active torsions:
REMARK  status: ('A' for Active; 'I' for Inactive)
ROOT
ATOM      1  C1  DEN d   1       1.022   1.249  -0.052  0.00  0.00     0.130 A 
ATOM      2  C2  DEN d   1      -0.374   1.089  -0.451  0.00  0.00    -0.031 A 
ATOM      3  C3  DEN d   1      -0.736  -0.333  -0.283  0.00  0.00     0.027 A 
ATOM      4  C4  DEN d   1       0.719  -2.289   0.558  0.00  0.00     0.027 A 
ATOM      5  C5  DEN d   1       1.973  -2.645   1.003  0.00  0.00    -0.003 A 
ATOM      6  C6  DEN d   1       2.999  -1.742   1.095  0.00  0.00     0.001 A 
ATOM      7  C7  DEN d   1       2.776  -0.428   0.779  0.00  0.00     0.017 A 
ATOM      8  C8  DEN d   1       1.517  -0.063   0.322  0.00  0.00    -0.094 A 
ATOM      9  C9  DEN d   1       0.490  -0.988   0.248  0.00  0.00    -0.072 A 
ENDROOT
TORSDOF 0
ENDMDL
