MODEL 1
REMARK minimizedAffinity -5.83063412
REMARK minimizedRMSD -1
REMARK  0 active torsions:
REMARK  status: ('A' for Active; 'I' for Inactive)
ROOT
ATOM      1  C1  DEN d   1       1.042  -2.489   1.560  0.00  0.00     0.130 A 
ATOM      2  C2  DEN d   1       2.122  -2.480   0.576  0.00  0.00    -0.031 A 
ATOM      3  C3  DEN d   1       2.067  -1.196  -0.151  0.00  0.00     0.027 A 
ATOM      4  C4  DEN d   1       0.427   0.771   0.153  0.00  0.00     0.027 A 
ATOM      5  C5  DEN d   1      -0.668   1.221   0.856  0.00  0.00    -0.003 A 
ATOM      6  C6  DEN d   1      -1.286   0.459   1.812  0.00  0.00     0.001 A 
ATOM      7  C7  DEN d   1      -0.784  -0.778   2.123  0.00  0.00     0.017 A 
ATOM      8  C8  DEN d   1       0.315  -1.241   1.412  0.00  0.00    -0.094 A 
ATOM      9  C9  DEN d   1       0.933  -0.451   0.458  0.00  0.00    -0.072 A 
ENDROOT
TORSDOF 0
ENDMDL
