MODEL 1
REMARK minimizedAffinity -2.09016156
REMARK minimizedRMSD -1
REMARK  0 active torsions:
REMARK  status: ('A' for Active; 'I' for Inactive)
ROOT
ATOM      1  C1  DEN d   1      -1.011   0.322   0.267  0.00  0.00     0.130 A 
ATOM      2  C2  DEN d   1       0.419   0.034   0.189  0.00  0.00    -0.031 A 
ATOM      3  C3  DEN d   1       0.852   0.246  -1.207  0.00  0.00     0.027 A 
ATOM      4  C4  DEN d   1      -0.543   0.994  -3.243  0.00  0.00     0.027 A 
ATOM      5  C5  DEN d   1      -1.804   1.346  -3.671  0.00  0.00    -0.003 A 
ATOM      6  C6  DEN d   1      -2.887   1.348  -2.832  0.00  0.00     0.001 A 
ATOM      7  C7  DEN d   1      -2.720   1.035  -1.509  0.00  0.00     0.017 A 
ATOM      8  C8  DEN d   1      -1.453   0.672  -1.071  0.00  0.00    -0.094 A 
ATOM      9  C9  DEN d   1      -0.369   0.688  -1.932  0.00  0.00    -0.072 A 
ENDROOT
TORSDOF 0
ENDMDL
