MODEL 1
REMARK minimizedAffinity -0.759673953
REMARK minimizedRMSD -1
REMARK  0 active torsions:
REMARK  status: ('A' for Active; 'I' for Inactive)
ROOT
ATOM      1  C1  DEN d   1       2.547   0.094   2.348  0.00  0.00     0.130 A 
ATOM      2  C2  DEN d   1       3.929  -0.375   2.305  0.00  0.00    -0.031 A 
ATOM      3  C3  DEN d   1       4.174  -0.953   0.969  0.00  0.00     0.027 A 
ATOM      4  C4  DEN d   1       2.558  -1.161  -1.030  0.00  0.00     0.027 A 
ATOM      5  C5  DEN d   1       1.275  -0.915  -1.467  0.00  0.00    -0.003 A 
ATOM      6  C6  DEN d   1       0.324  -0.351  -0.658  0.00  0.00     0.001 A 
ATOM      7  C7  DEN d   1       0.655   0.028   0.616  0.00  0.00     0.017 A 
ATOM      8  C8  DEN d   1       1.944  -0.224   1.066  0.00  0.00    -0.094 A 
ATOM      9  C9  DEN d   1       2.895  -0.785   0.229  0.00  0.00    -0.072 A 
ENDROOT
TORSDOF 0
ENDMDL
