MODEL 1
REMARK minimizedAffinity -1.79930639
REMARK minimizedRMSD -1
REMARK  0 active torsions:
REMARK  status: ('A' for Active; 'I' for Inactive)
ROOT
ATOM      1  C1  DEN d   1       1.701  -1.837   1.516  0.00  0.00     0.130 A 
ATOM      2  C2  DEN d   1       2.648  -1.787   0.406  0.00  0.00    -0.031 A 
ATOM      3  C3  DEN d   1       2.177  -0.766  -0.551  0.00  0.00     0.027 A 
ATOM      4  C4  DEN d   1       0.085   0.738  -0.421  0.00  0.00     0.027 A 
ATOM      5  C5  DEN d   1      -1.029   1.049   0.328  0.00  0.00    -0.003 A 
ATOM      6  C6  DEN d   1      -1.327   0.402   1.497  0.00  0.00     0.001 A 
ATOM      7  C7  DEN d   1      -0.476  -0.560   1.977  0.00  0.00     0.017 A 
ATOM      8  C8  DEN d   1       0.645  -0.884   1.224  0.00  0.00    -0.094 A 
ATOM      9  C9  DEN d   1       0.935  -0.210   0.050  0.00  0.00    -0.072 A 
ENDROOT
TORSDOF 0
ENDMDL
