MODEL 1
REMARK minimizedAffinity -5.84878635
REMARK minimizedRMSD -1
REMARK  0 active torsions:
REMARK  status: ('A' for Active; 'I' for Inactive)
ROOT
ATOM      1  C1  DEN d   1       2.252  -1.020  -0.086  0.00  0.00     0.130 A 
ATOM      2  C2  DEN d   1       2.587  -2.112   0.825  0.00  0.00    -0.031 A 
ATOM      3  C3  DEN d   1       1.549  -2.165   1.874  0.00  0.00     0.027 A 
ATOM      4  C4  DEN d   1      -0.536  -0.675   2.172  0.00  0.00     0.027 A 
ATOM      5  C5  DEN d   1      -1.235   0.392   1.654  0.00  0.00    -0.003 A 
ATOM      6  C6  DEN d   1      -0.807   1.080   0.550  0.00  0.00     0.001 A 
ATOM      7  C7  DEN d   1       0.329   0.678  -0.101  0.00  0.00     0.017 A 
ATOM      8  C8  DEN d   1       1.044  -0.392   0.419  0.00  0.00    -0.094 A 
ATOM      9  C9  DEN d   1       0.589  -1.082   1.530  0.00  0.00    -0.072 A 
ENDROOT
TORSDOF 0
ENDMDL
