MODEL 1
REMARK minimizedAffinity -3.87556481
REMARK minimizedRMSD -1
REMARK  0 active torsions:
REMARK  status: ('A' for Active; 'I' for Inactive)
ROOT
ATOM      1  C1  DEN d   1      -0.899  -0.376  -0.606  0.00  0.00     0.130 A 
ATOM      2  C2  DEN d   1      -0.737   1.071  -0.499  0.00  0.00    -0.031 A 
ATOM      3  C3  DEN d   1       0.559   1.338   0.158  0.00  0.00     0.027 A 
ATOM      4  C4  DEN d   1       2.322  -0.341   1.011  0.00  0.00     0.027 A 
ATOM      5  C5  DEN d   1       2.623  -1.678   1.151  0.00  0.00    -0.003 A 
ATOM      6  C6  DEN d   1       1.765  -2.666   0.749  0.00  0.00     0.001 A 
ATOM      7  C7  DEN d   1       0.581  -2.333   0.146  0.00  0.00     0.017 A 
ATOM      8  C8  DEN d   1       0.266  -0.987   0.008  0.00  0.00    -0.094 A 
ATOM      9  C9  DEN d   1       1.153  -0.003   0.409  0.00  0.00    -0.072 A 
ENDROOT
TORSDOF 0
ENDMDL
