MODEL 1
REMARK minimizedAffinity -3.54737544
REMARK minimizedRMSD -1
REMARK  0 active torsions:
REMARK  status: ('A' for Active; 'I' for Inactive)
ROOT
ATOM      1  C1  DEN d   1      -0.482   0.033  -1.185  0.00  0.00     0.130 A 
ATOM      2  C2  DEN d   1      -0.575   1.425  -0.753  0.00  0.00    -0.031 A 
ATOM      3  C3  DEN d   1       0.562   1.700   0.148  0.00  0.00     0.027 A 
ATOM      4  C4  DEN d   1       2.450   0.116   0.909  0.00  0.00     0.027 A 
ATOM      5  C5  DEN d   1       2.946  -1.166   0.816  0.00  0.00    -0.003 A 
ATOM      6  C6  DEN d   1       2.321  -2.139   0.082  0.00  0.00     0.001 A 
ATOM      7  C7  DEN d   1       1.187  -1.834  -0.624  0.00  0.00     0.017 A 
ATOM      8  C8  DEN d   1       0.677  -0.546  -0.529  0.00  0.00    -0.094 A 
ATOM      9  C9  DEN d   1       1.330   0.427   0.208  0.00  0.00    -0.072 A 
ENDROOT
TORSDOF 0
ENDMDL
