MODEL 1
REMARK minimizedAffinity -4.41167688
REMARK minimizedRMSD -1
REMARK  0 active torsions:
REMARK  status: ('A' for Active; 'I' for Inactive)
ROOT
ATOM      1  C1  DEN d   1       0.543   1.099  -0.432  0.00  0.00     0.130 A 
ATOM      2  C2  DEN d   1      -0.799   1.306   0.107  0.00  0.00    -0.031 A 
ATOM      3  C3  DEN d   1      -1.185   0.089   0.850  0.00  0.00     0.027 A 
ATOM      4  C4  DEN d   1       0.158  -2.081   1.221  0.00  0.00     0.027 A 
ATOM      5  C5  DEN d   1       1.342  -2.729   0.946  0.00  0.00    -0.003 A 
ATOM      6  C6  DEN d   1       2.321  -2.165   0.171  0.00  0.00     0.001 A 
ATOM      7  C7  DEN d   1       2.152  -0.897  -0.320  0.00  0.00     0.017 A 
ATOM      8  C8  DEN d   1       0.957  -0.240  -0.053  0.00  0.00    -0.094 A 
ATOM      9  C9  DEN d   1      -0.014  -0.823   0.743  0.00  0.00    -0.072 A 
ENDROOT
TORSDOF 0
ENDMDL
