MODEL 1
REMARK minimizedAffinity -6.02304506
REMARK minimizedRMSD -1
REMARK  0 active torsions:
REMARK  status: ('A' for Active; 'I' for Inactive)
ROOT
ATOM      1  C1  DEN d   1      -1.267  -0.560  -0.456  0.00  0.00     0.130 A 
ATOM      2  C2  DEN d   1      -1.077   0.765  -1.040  0.00  0.00    -0.031 A 
ATOM      3  C3  DEN d   1       0.350   1.123  -0.905  0.00  0.00     0.027 A 
ATOM      4  C4  DEN d   1       2.273  -0.240   0.141  0.00  0.00     0.027 A 
ATOM      5  C5  DEN d   1       2.597  -1.418   0.778  0.00  0.00    -0.003 A 
ATOM      6  C6  DEN d   1       1.658  -2.370   1.075  0.00  0.00     0.001 A 
ATOM      7  C7  DEN d   1       0.355  -2.180   0.696  0.00  0.00     0.017 A 
ATOM      8  C8  DEN d   1       0.019  -0.992   0.060  0.00  0.00    -0.094 A 
ATOM      9  C9  DEN d   1       0.986  -0.047  -0.243  0.00  0.00    -0.072 A 
ENDROOT
TORSDOF 0
ENDMDL
