MODEL 1
REMARK minimizedAffinity 2.39803529
REMARK minimizedRMSD -1
REMARK  0 active torsions:
REMARK  status: ('A' for Active; 'I' for Inactive)
ROOT
ATOM      1  C   UNL d   1      -1.119  -2.257   1.301  0.00  0.00     0.124 A 
ATOM      2  C1  UNL d   1       0.226  -1.940   1.436  0.00  0.00     0.062 A 
ATOM      3  C2  UNL d   1       0.795  -0.949   0.641  0.00  0.00     0.162 A 
ATOM      4  C3  UNL d   1       0.019  -0.267  -0.296  0.00  0.00    -0.034 A 
ATOM      5  C4  UNL d   1      -1.332  -0.592  -0.427  0.00  0.00     0.162 A 
ATOM      6  C5  UNL d   1      -1.896  -1.583   0.369  0.00  0.00     0.062 A 
ATOM      7  F   UNL d   1      -3.195  -1.887   0.237  0.00  0.00    -0.097 F 
ATOM      8  F1  UNL d   1      -2.106   0.045  -1.318  0.00  0.00    -0.096 F 
ATOM      9  I   UNL d   1       0.867   1.215  -1.486  0.00  0.00    -0.060 I 
ATOM     10  F2  UNL d   1       2.097  -0.664   0.794  0.00  0.00    -0.096 F 
ATOM     11  F3  UNL d   1       0.979  -2.591   2.334  0.00  0.00    -0.097 F 
ATOM     12  F4  UNL d   1      -1.664  -3.211   2.066  0.00  0.00    -0.092 F 
ENDROOT
TORSDOF 0
ENDMDL
