MODEL 1
REMARK minimizedAffinity -4.95822001
REMARK minimizedRMSD -1
REMARK  0 active torsions:
REMARK  status: ('A' for Active; 'I' for Inactive)
ROOT
ATOM      1  C   UNL d   1      -2.179  -1.854   1.527  0.00  0.00     0.124 A 
ATOM      2  C1  UNL d   1      -1.094  -2.255   0.760  0.00  0.00     0.062 A 
ATOM      3  C2  UNL d   1      -0.249  -1.305   0.193  0.00  0.00     0.162 A 
ATOM      4  C3  UNL d   1      -0.485   0.055   0.392  0.00  0.00    -0.034 A 
ATOM      5  C4  UNL d   1      -1.579   0.450   1.164  0.00  0.00     0.162 A 
ATOM      6  C5  UNL d   1      -2.421  -0.503   1.728  0.00  0.00     0.062 A 
ATOM      7  F   UNL d   1      -3.469  -0.114   2.469  0.00  0.00    -0.097 F 
ATOM      8  F1  UNL d   1      -1.834   1.750   1.376  0.00  0.00    -0.096 F 
ATOM      9  I   UNL d   1       0.777   1.478  -0.453  0.00  0.00    -0.060 I 
ATOM     10  F2  UNL d   1       0.792  -1.721  -0.543  0.00  0.00    -0.096 F 
ATOM     11  F3  UNL d   1      -0.859  -3.560   0.563  0.00  0.00    -0.097 F 
ATOM     12  F4  UNL d   1      -2.992  -2.770   2.070  0.00  0.00    -0.092 F 
ENDROOT
TORSDOF 0
ENDMDL
