MODEL 1
REMARK minimizedAffinity -4.06178188
REMARK minimizedRMSD -1
REMARK  0 active torsions:
REMARK  status: ('A' for Active; 'I' for Inactive)
ROOT
ATOM      1  C   UNL d   1      -1.330  -2.085   1.502  0.00  0.00     0.124 A 
ATOM      2  C1  UNL d   1      -1.900  -0.858   1.193  0.00  0.00     0.062 A 
ATOM      3  C2  UNL d   1      -1.173   0.093   0.483  0.00  0.00     0.162 A 
ATOM      4  C3  UNL d   1       0.133  -0.180   0.076  0.00  0.00    -0.034 A 
ATOM      5  C4  UNL d   1       0.700  -1.416   0.391  0.00  0.00     0.162 A 
ATOM      6  C5  UNL d   1      -0.031  -2.363   1.100  0.00  0.00     0.062 A 
ATOM      7  F   UNL d   1       0.522  -3.548   1.398  0.00  0.00    -0.097 F 
ATOM      8  F1  UNL d   1       1.953  -1.710   0.014  0.00  0.00    -0.096 F 
ATOM      9  I   UNL d   1       1.223   1.240  -0.986  0.00  0.00    -0.060 I 
ATOM     10  F2  UNL d   1      -1.750   1.270   0.199  0.00  0.00    -0.096 F 
ATOM     11  F3  UNL d   1      -3.155  -0.587   1.581  0.00  0.00    -0.097 F 
ATOM     12  F4  UNL d   1      -2.031  -2.998   2.186  0.00  0.00    -0.092 F 
ENDROOT
TORSDOF 0
ENDMDL
