MODEL 1
REMARK minimizedAffinity 2.72410369
REMARK minimizedRMSD -1
REMARK  0 active torsions:
REMARK  status: ('A' for Active; 'I' for Inactive)
ROOT
ATOM      1  C   UNL d   1      -2.501  -0.734   0.716  0.00  0.00     0.124 A 
ATOM      2  C1  UNL d   1      -2.047   0.516   1.115  0.00  0.00     0.062 A 
ATOM      3  C2  UNL d   1      -0.889   1.050   0.559  0.00  0.00     0.162 A 
ATOM      4  C3  UNL d   1      -0.175   0.336  -0.403  0.00  0.00    -0.034 A 
ATOM      5  C4  UNL d   1      -0.637  -0.921  -0.799  0.00  0.00     0.162 A 
ATOM      6  C5  UNL d   1      -1.796  -1.451  -0.241  0.00  0.00     0.062 A 
ATOM      7  F   UNL d   1      -2.232  -2.658  -0.628  0.00  0.00    -0.097 F 
ATOM      8  F1  UNL d   1       0.024  -1.634  -1.722  0.00  0.00    -0.096 F 
ATOM      9  I   UNL d   1       1.558   1.132  -1.237  0.00  0.00    -0.060 I 
ATOM     10  F2  UNL d   1      -0.474   2.260   0.964  0.00  0.00    -0.096 F 
ATOM     11  F3  UNL d   1      -2.726   1.210   2.040  0.00  0.00    -0.097 F 
ATOM     12  F4  UNL d   1      -3.615  -1.246   1.253  0.00  0.00    -0.092 F 
ENDROOT
TORSDOF 0
ENDMDL
