MODEL 1
REMARK minimizedAffinity 4.07723904
REMARK minimizedRMSD -1
REMARK  0 active torsions:
REMARK  status: ('A' for Active; 'I' for Inactive)
ROOT
ATOM      1  C   UNL d   1      -0.674  -1.930   1.257  0.00  0.00     0.124 A 
ATOM      2  C1  UNL d   1       0.712  -1.914   1.186  0.00  0.00     0.062 A 
ATOM      3  C2  UNL d   1       1.367  -0.878   0.527  0.00  0.00     0.162 A 
ATOM      4  C3  UNL d   1       0.637   0.152  -0.066  0.00  0.00    -0.034 A 
ATOM      5  C4  UNL d   1      -0.757   0.128   0.009  0.00  0.00     0.162 A 
ATOM      6  C5  UNL d   1      -1.407  -0.909   0.669  0.00  0.00     0.062 A 
ATOM      7  F   UNL d   1      -2.746  -0.923   0.737  0.00  0.00    -0.097 F 
ATOM      8  F1  UNL d   1      -1.490   1.103  -0.549  0.00  0.00    -0.096 F 
ATOM      9  I   UNL d   1       1.613   1.703  -1.052  0.00  0.00    -0.060 I 
ATOM     10  F2  UNL d   1       2.708  -0.888   0.474  0.00  0.00    -0.096 F 
ATOM     11  F3  UNL d   1       1.423  -2.900   1.753  0.00  0.00    -0.097 F 
ATOM     12  F4  UNL d   1      -1.302  -2.929   1.891  0.00  0.00    -0.092 F 
ENDROOT
TORSDOF 0
ENDMDL
