MODEL 1
REMARK minimizedAffinity 2.33320737
REMARK minimizedRMSD -1
REMARK  0 active torsions:
REMARK  status: ('A' for Active; 'I' for Inactive)
ROOT
ATOM      1  C   UNL d   1      -1.316  -1.739   1.178  0.00  0.00     0.124 A 
ATOM      2  C1  UNL d   1      -1.782  -0.734   0.341  0.00  0.00     0.062 A 
ATOM      3  C2  UNL d   1      -0.890   0.167  -0.234  0.00  0.00     0.162 A 
ATOM      4  C3  UNL d   1       0.477   0.067   0.026  0.00  0.00    -0.034 A 
ATOM      5  C4  UNL d   1       0.937  -0.946   0.869  0.00  0.00     0.162 A 
ATOM      6  C5  UNL d   1       0.042  -1.844   1.441  0.00  0.00     0.062 A 
ATOM      7  F   UNL d   1       0.494  -2.814   2.249  0.00  0.00    -0.097 F 
ATOM      8  F1  UNL d   1       2.245  -1.070   1.140  0.00  0.00    -0.096 F 
ATOM      9  I   UNL d   1       1.813   1.413  -0.832  0.00  0.00    -0.060 I 
ATOM     10  F2  UNL d   1      -1.368   1.128  -1.038  0.00  0.00    -0.096 F 
ATOM     11  F3  UNL d   1      -3.094  -0.631   0.086  0.00  0.00    -0.097 F 
ATOM     12  F4  UNL d   1      -2.176  -2.604   1.730  0.00  0.00    -0.092 F 
ENDROOT
TORSDOF 0
ENDMDL
