MODEL 1
REMARK minimizedAffinity -2.70063829
REMARK minimizedRMSD -1
REMARK  0 active torsions:
REMARK  status: ('A' for Active; 'I' for Inactive)
ROOT
ATOM      1  C   UNL d   1       1.319   2.122  -2.993  0.00  0.00     0.124 A 
ATOM      2  C1  UNL d   1       1.871   1.996  -1.726  0.00  0.00     0.062 A 
ATOM      3  C2  UNL d   1       1.180   1.318  -0.726  0.00  0.00     0.162 A 
ATOM      4  C3  UNL d   1      -0.071   0.761  -0.989  0.00  0.00    -0.034 A 
ATOM      5  C4  UNL d   1      -0.620   0.892  -2.265  0.00  0.00     0.162 A 
ATOM      6  C5  UNL d   1       0.074   1.571  -3.262  0.00  0.00     0.062 A 
ATOM      7  F   UNL d   1      -0.461   1.692  -4.485  0.00  0.00    -0.097 F 
ATOM      8  F1  UNL d   1      -1.821   0.368  -2.552  0.00  0.00    -0.096 F 
ATOM      9  I   UNL d   1      -1.107  -0.253   0.504  0.00  0.00    -0.060 I 
ATOM     10  F2  UNL d   1       1.738   1.212   0.489  0.00  0.00    -0.096 F 
ATOM     11  F3  UNL d   1       3.073   2.529  -1.464  0.00  0.00    -0.097 F 
ATOM     12  F4  UNL d   1       1.986   2.775  -3.954  0.00  0.00    -0.092 F 
ENDROOT
TORSDOF 0
ENDMDL
