MODEL 1
REMARK minimizedAffinity -0.391346395
REMARK minimizedRMSD -1
REMARK  0 active torsions:
REMARK  status: ('A' for Active; 'I' for Inactive)
ROOT
ATOM      1  C   UNL d   1      -2.089   0.058   0.783  0.00  0.00     0.124 A 
ATOM      2  C1  UNL d   1      -1.883   1.421   0.625  0.00  0.00     0.062 A 
ATOM      3  C2  UNL d   1      -0.862   1.884  -0.199  0.00  0.00     0.162 A 
ATOM      4  C3  UNL d   1      -0.038   0.983  -0.873  0.00  0.00    -0.034 A 
ATOM      5  C4  UNL d   1      -0.250  -0.387  -0.709  0.00  0.00     0.162 A 
ATOM      6  C5  UNL d   1      -1.273  -0.845   0.116  0.00  0.00     0.062 A 
ATOM      7  F   UNL d   1      -1.470  -2.163   0.267  0.00  0.00    -0.097 F 
ATOM      8  F1  UNL d   1       0.523  -1.282  -1.342  0.00  0.00    -0.096 F 
ATOM      9  I   UNL d   1       1.491   1.671  -2.107  0.00  0.00    -0.060 I 
ATOM     10  F2  UNL d   1      -0.686   3.207  -0.333  0.00  0.00    -0.096 F 
ATOM     11  F3  UNL d   1      -2.670   2.295   1.269  0.00  0.00    -0.097 F 
ATOM     12  F4  UNL d   1      -3.072  -0.385   1.577  0.00  0.00    -0.092 F 
ENDROOT
TORSDOF 0
ENDMDL
