MODEL 1
REMARK minimizedAffinity -4.11203384
REMARK minimizedRMSD -1
REMARK  0 active torsions:
REMARK  status: ('A' for Active; 'I' for Inactive)
ROOT
ATOM      1  C   UNL d   1      -2.079  -1.013   1.568  0.00  0.00     0.124 A 
ATOM      2  C1  UNL d   1      -1.206  -1.661   0.706  0.00  0.00     0.062 A 
ATOM      3  C2  UNL d   1      -0.239  -0.938   0.014  0.00  0.00     0.162 A 
ATOM      4  C3  UNL d   1      -0.139   0.443   0.182  0.00  0.00    -0.034 A 
ATOM      5  C4  UNL d   1      -1.021   1.089   1.051  0.00  0.00     0.162 A 
ATOM      6  C5  UNL d   1      -1.986   0.361   1.740  0.00  0.00     0.062 A 
ATOM      7  F   UNL d   1      -2.829   0.989   2.572  0.00  0.00    -0.097 F 
ATOM      8  F1  UNL d   1      -0.953   2.415   1.236  0.00  0.00    -0.096 F 
ATOM      9  I   UNL d   1       1.305   1.529  -0.850  0.00  0.00    -0.060 I 
ATOM     10  F2  UNL d   1       0.592  -1.590  -0.813  0.00  0.00    -0.096 F 
ATOM     11  F3  UNL d   1      -1.294  -2.989   0.537  0.00  0.00    -0.097 F 
ATOM     12  F4  UNL d   1      -3.009  -1.712   2.232  0.00  0.00    -0.092 F 
ENDROOT
TORSDOF 0
ENDMDL
