MODEL 1
REMARK minimizedAffinity -1.10280991
REMARK minimizedRMSD -1
REMARK  0 active torsions:
REMARK  status: ('A' for Active; 'I' for Inactive)
ROOT
ATOM      1  C   UNL d   1      -0.859  -1.233   1.210  0.00  0.00     0.124 A 
ATOM      2  C1  UNL d   1       0.520  -1.339   1.102  0.00  0.00     0.062 A 
ATOM      3  C2  UNL d   1       1.253  -0.338   0.472  0.00  0.00     0.162 A 
ATOM      4  C3  UNL d   1       0.606   0.781  -0.056  0.00  0.00    -0.034 A 
ATOM      5  C4  UNL d   1      -0.782   0.880   0.056  0.00  0.00     0.162 A 
ATOM      6  C5  UNL d   1      -1.509  -0.124   0.687  0.00  0.00     0.062 A 
ATOM      7  F   UNL d   1      -2.842  -0.019   0.790  0.00  0.00    -0.097 F 
ATOM      8  F1  UNL d   1      -1.435   1.941  -0.440  0.00  0.00    -0.096 F 
ATOM      9  I   UNL d   1       1.698   2.281  -0.999  0.00  0.00    -0.060 I 
ATOM     10  F2  UNL d   1       2.585  -0.467   0.382  0.00  0.00    -0.096 F 
ATOM     11  F3  UNL d   1       1.150  -2.411   1.606  0.00  0.00    -0.097 F 
ATOM     12  F4  UNL d   1      -1.561  -2.199   1.816  0.00  0.00    -0.092 F 
ENDROOT
TORSDOF 0
ENDMDL
