MODEL 1
REMARK minimizedAffinity 2.27087283
REMARK minimizedRMSD -1
REMARK  0 active torsions:
REMARK  status: ('A' for Active; 'I' for Inactive)
ROOT
ATOM      1  C   UNL d   1      -1.119  -2.427   1.523  0.00  0.00     0.124 A 
ATOM      2  C1  UNL d   1       0.254  -2.314   1.349  0.00  0.00     0.062 A 
ATOM      3  C2  UNL d   1       0.789  -1.200   0.710  0.00  0.00     0.162 A 
ATOM      4  C3  UNL d   1      -0.048  -0.188   0.240  0.00  0.00    -0.034 A 
ATOM      5  C4  UNL d   1      -1.428  -0.309   0.418  0.00  0.00     0.162 A 
ATOM      6  C5  UNL d   1      -1.958  -1.425   1.057  0.00  0.00     0.062 A 
ATOM      7  F   UNL d   1      -3.284  -1.532   1.224  0.00  0.00    -0.097 F 
ATOM      8  F1  UNL d   1      -2.261   0.645  -0.022  0.00  0.00    -0.096 F 
ATOM      9  I   UNL d   1       0.749   1.479  -0.717  0.00  0.00    -0.060 I 
ATOM     10  F2  UNL d   1       2.119  -1.118   0.556  0.00  0.00    -0.096 F 
ATOM     11  F3  UNL d   1       1.066  -3.282   1.798  0.00  0.00    -0.097 F 
ATOM     12  F4  UNL d   1      -1.631  -3.501   2.138  0.00  0.00    -0.092 F 
ENDROOT
TORSDOF 0
ENDMDL
