MODEL 1
REMARK minimizedAffinity -0.891247153
REMARK minimizedRMSD -1
REMARK  0 active torsions:
REMARK  status: ('A' for Active; 'I' for Inactive)
ROOT
ATOM      1  C   UNL d   1       0.658   2.139  -0.912  0.00  0.00     0.124 A 
ATOM      2  C1  UNL d   1      -0.285   2.079   0.105  0.00  0.00     0.062 A 
ATOM      3  C2  UNL d   1      -0.723   0.847   0.582  0.00  0.00     0.162 A 
ATOM      4  C3  UNL d   1      -0.217  -0.336   0.044  0.00  0.00    -0.034 A 
ATOM      5  C4  UNL d   1       0.730  -0.268  -0.979  0.00  0.00     0.162 A 
ATOM      6  C5  UNL d   1       1.164   0.966  -1.453  0.00  0.00     0.062 A 
ATOM      7  F   UNL d   1       2.075   1.021  -2.435  0.00  0.00    -0.097 F 
ATOM      8  F1  UNL d   1       1.237  -1.386  -1.520  0.00  0.00    -0.096 F 
ATOM      9  I   UNL d   1      -0.869  -2.181   0.754  0.00  0.00    -0.060 I 
ATOM     10  F2  UNL d   1      -1.635   0.819   1.566  0.00  0.00    -0.096 F 
ATOM     11  F3  UNL d   1      -0.777   3.211   0.629  0.00  0.00    -0.097 F 
ATOM     12  F4  UNL d   1       1.076   3.326  -1.369  0.00  0.00    -0.092 F 
ENDROOT
TORSDOF 0
ENDMDL
