MODEL 1
REMARK minimizedAffinity -1.68588269
REMARK minimizedRMSD -1
REMARK  0 active torsions:
REMARK  status: ('A' for Active; 'I' for Inactive)
ROOT
ATOM      1  C   UNL d   1      -1.350  -1.880   1.477  0.00  0.00     0.124 A 
ATOM      2  C1  UNL d   1      -2.082  -0.772   1.072  0.00  0.00     0.062 A 
ATOM      3  C2  UNL d   1      -1.477   0.228   0.317  0.00  0.00     0.162 A 
ATOM      4  C3  UNL d   1      -0.133   0.126  -0.039  0.00  0.00    -0.034 A 
ATOM      5  C4  UNL d   1       0.597  -0.990   0.373  0.00  0.00     0.162 A 
ATOM      6  C5  UNL d   1      -0.012  -1.988   1.128  0.00  0.00     0.062 A 
ATOM      7  F   UNL d   1       0.697  -3.057   1.518  0.00  0.00    -0.097 F 
ATOM      8  F1  UNL d   1       1.892  -1.121   0.048  0.00  0.00    -0.096 F 
ATOM      9  I   UNL d   1       0.775   1.620  -1.168  0.00  0.00    -0.060 I 
ATOM     10  F2  UNL d   1      -2.209   1.287  -0.061  0.00  0.00    -0.096 F 
ATOM     11  F3  UNL d   1      -3.375  -0.665   1.409  0.00  0.00    -0.097 F 
ATOM     12  F4  UNL d   1      -1.934  -2.840   2.205  0.00  0.00    -0.092 F 
ENDROOT
TORSDOF 0
ENDMDL
