MODEL 1
REMARK minimizedAffinity -2.70942402
REMARK minimizedRMSD -1
REMARK  0 active torsions:
REMARK  status: ('A' for Active; 'I' for Inactive)
ROOT
ATOM      1  C   UNL d   1      -1.267  -2.098   2.074  0.00  0.00     0.124 A 
ATOM      2  C1  UNL d   1      -1.909  -0.893   1.825  0.00  0.00     0.062 A 
ATOM      3  C2  UNL d   1      -1.374   0.011   0.911  0.00  0.00     0.162 A 
ATOM      4  C3  UNL d   1      -0.189  -0.288   0.238  0.00  0.00    -0.034 A 
ATOM      5  C4  UNL d   1       0.452  -1.501   0.494  0.00  0.00     0.162 A 
ATOM      6  C5  UNL d   1      -0.087  -2.401   1.408  0.00  0.00     0.062 A 
ATOM      7  F   UNL d   1       0.535  -3.564   1.647  0.00  0.00    -0.097 F 
ATOM      8  F1  UNL d   1       1.592  -1.820  -0.136  0.00  0.00    -0.096 F 
ATOM      9  I   UNL d   1       0.614   1.060  -1.129  0.00  0.00    -0.060 I 
ATOM     10  F2  UNL d   1      -2.016   1.167   0.691  0.00  0.00    -0.096 F 
ATOM     11  F3  UNL d   1      -3.048  -0.597   2.467  0.00  0.00    -0.097 F 
ATOM     12  F4  UNL d   1      -1.784  -2.964   2.954  0.00  0.00    -0.092 F 
ENDROOT
TORSDOF 0
ENDMDL
