MODEL 1
REMARK minimizedAffinity -4.02173281
REMARK minimizedRMSD -1
REMARK  0 active torsions:
REMARK  status: ('A' for Active; 'I' for Inactive)
ROOT
ATOM      1  C   UNL d   1      -1.376  -1.185   1.778  0.00  0.00     0.124 A 
ATOM      2  C1  UNL d   1      -1.637   0.157   1.539  0.00  0.00     0.062 A 
ATOM      3  C2  UNL d   1      -0.779   0.905   0.738  0.00  0.00     0.162 A 
ATOM      4  C3  UNL d   1       0.348   0.312   0.169  0.00  0.00    -0.034 A 
ATOM      5  C4  UNL d   1       0.605  -1.038   0.416  0.00  0.00     0.162 A 
ATOM      6  C5  UNL d   1      -0.256  -1.781   1.217  0.00  0.00     0.062 A 
ATOM      7  F   UNL d   1      -0.002  -3.077   1.448  0.00  0.00    -0.097 F 
ATOM      8  F1  UNL d   1       1.680  -1.639  -0.115  0.00  0.00    -0.096 F 
ATOM      9  I   UNL d   1       1.634   1.427  -1.029  0.00  0.00    -0.060 I 
ATOM     10  F2  UNL d   1      -1.056   2.200   0.523  0.00  0.00    -0.096 F 
ATOM     11  F3  UNL d   1      -2.719   0.735   2.081  0.00  0.00    -0.097 F 
ATOM     12  F4  UNL d   1      -2.203  -1.902   2.550  0.00  0.00    -0.092 F 
ENDROOT
TORSDOF 0
ENDMDL
