MODEL 1
REMARK minimizedAffinity -2.9168725
REMARK minimizedRMSD -1
REMARK  0 active torsions:
REMARK  status: ('A' for Active; 'I' for Inactive)
ROOT
ATOM      1  C   UNL d   1       0.251  -0.937  -0.486  0.00  0.00     0.020 A 
ATOM      2  C1  UNL d   1       1.177  -0.241   0.289  0.00  0.00     0.020 A 
ATOM      3  C2  UNL d   1       1.986   0.735  -0.297  0.00  0.00     0.034 A 
ATOM      4  C3  UNL d   1       1.870   1.017  -1.663  0.00  0.00     0.017 A 
ATOM      5  C4  UNL d   1       0.940   0.318  -2.441  0.00  0.00     0.017 A 
ATOM      6  C5  UNL d   1       0.133  -0.657  -1.848  0.00  0.00     0.034 A 
ATOM      7 Cl   UNL d   1       0.739   0.611  -4.132  0.00  0.00    -0.070 Cl
ATOM      8 Cl1  UNL d   1       2.902   2.237  -2.322  0.00  0.00    -0.070 Cl
ENDROOT
TORSDOF 0
ENDMDL
