MODEL 1
REMARK minimizedAffinity -0.369947284
REMARK minimizedRMSD -1
REMARK  0 active torsions:
REMARK  status: ('A' for Active; 'I' for Inactive)
ROOT
ATOM      1  C   UNL d   1      -2.230   0.344   0.146  0.00  0.00     0.020 A 
ATOM      2  C1  UNL d   1      -1.717   0.272   1.441  0.00  0.00     0.020 A 
ATOM      3  C2  UNL d   1      -0.374  -0.054   1.642  0.00  0.00     0.034 A 
ATOM      4  C3  UNL d   1       0.460  -0.309   0.548  0.00  0.00     0.017 A 
ATOM      5  C4  UNL d   1      -0.056  -0.236  -0.751  0.00  0.00     0.017 A 
ATOM      6  C5  UNL d   1      -1.401   0.090  -0.947  0.00  0.00     0.034 A 
ATOM      7 Cl   UNL d   1       0.912  -0.538  -2.151  0.00  0.00    -0.070 Cl
ATOM      8 Cl1  UNL d   1       2.111  -0.705   0.871  0.00  0.00    -0.070 Cl
ENDROOT
TORSDOF 0
ENDMDL
