MODEL 1
REMARK minimizedAffinity -2.64703965
REMARK minimizedRMSD -1
REMARK  0 active torsions:
REMARK  status: ('A' for Active; 'I' for Inactive)
ROOT
ATOM      1  C   UNL d   1      -1.363  -0.103  -0.877  0.00  0.00     0.020 A 
ATOM      2  C1  UNL d   1      -0.101  -0.537  -1.283  0.00  0.00     0.020 A 
ATOM      3  C2  UNL d   1       0.958  -0.551  -0.373  0.00  0.00     0.034 A 
ATOM      4  C3  UNL d   1       0.759  -0.129   0.946  0.00  0.00     0.017 A 
ATOM      5  C4  UNL d   1      -0.508   0.307   1.353  0.00  0.00     0.017 A 
ATOM      6  C5  UNL d   1      -1.565   0.318   0.438  0.00  0.00     0.034 A 
ATOM      7 Cl   UNL d   1      -0.831   0.842   2.964  0.00  0.00    -0.070 Cl
ATOM      8 Cl1  UNL d   1       2.114  -0.173   2.017  0.00  0.00    -0.070 Cl
ENDROOT
TORSDOF 0
ENDMDL
