MODEL 1
REMARK minimizedAffinity -0.484688371
REMARK minimizedRMSD -1
REMARK  0 active torsions:
REMARK  status: ('A' for Active; 'I' for Inactive)
ROOT
ATOM      1  C   UNL d   1      -1.840   0.383   1.918  0.00  0.00     0.020 A 
ATOM      2  C1  UNL d   1      -2.552   0.331   0.720  0.00  0.00     0.020 A 
ATOM      3  C2  UNL d   1      -1.877   0.124  -0.485  0.00  0.00     0.034 A 
ATOM      4  C3  UNL d   1      -0.486  -0.029  -0.495  0.00  0.00     0.017 A 
ATOM      5  C4  UNL d   1       0.228   0.024   0.707  0.00  0.00     0.017 A 
ATOM      6  C5  UNL d   1      -0.453   0.230   1.911  0.00  0.00     0.034 A 
ATOM      7 Cl   UNL d   1       1.945  -0.158   0.774  0.00  0.00    -0.070 Cl
ATOM      8 Cl1  UNL d   1       0.283  -0.281  -2.022  0.00  0.00    -0.070 Cl
ENDROOT
TORSDOF 0
ENDMDL
