MODEL 1
REMARK minimizedAffinity 2.673141
REMARK minimizedRMSD -1
REMARK  0 active torsions:
REMARK  status: ('A' for Active; 'I' for Inactive)
ROOT
ATOM      1  C   UNL d   1      -0.765  -0.955   0.394  0.00  0.00     0.020 A 
ATOM      2  C1  UNL d   1      -1.039   0.384   0.672  0.00  0.00     0.020 A 
ATOM      3  C2  UNL d   1      -2.320   0.894   0.452  0.00  0.00     0.034 A 
ATOM      4  C3  UNL d   1      -3.331   0.066  -0.049  0.00  0.00     0.017 A 
ATOM      5  C4  UNL d   1      -3.055  -1.277  -0.328  0.00  0.00     0.017 A 
ATOM      6  C5  UNL d   1      -1.770  -1.783  -0.105  0.00  0.00     0.034 A 
ATOM      7 Cl   UNL d   1      -4.251  -2.360  -0.948  0.00  0.00    -0.070 Cl
ATOM      8 Cl1  UNL d   1      -4.892   0.764  -0.298  0.00  0.00    -0.070 Cl
ENDROOT
TORSDOF 0
ENDMDL
