MODEL 1
REMARK minimizedAffinity -5.37690926
REMARK minimizedRMSD -1
REMARK  0 active torsions:
REMARK  status: ('A' for Active; 'I' for Inactive)
ROOT
ATOM      1  C   UNL d   1       1.448   0.254   2.909  0.00  0.00     0.020 A 
ATOM      2  C1  UNL d   1       0.251   0.772   3.403  0.00  0.00     0.020 A 
ATOM      3  C2  UNL d   1      -0.865   0.868   2.570  0.00  0.00     0.034 A 
ATOM      4  C3  UNL d   1      -0.788   0.445   1.238  0.00  0.00     0.017 A 
ATOM      5  C4  UNL d   1       0.414  -0.075   0.743  0.00  0.00     0.017 A 
ATOM      6  C5  UNL d   1       1.529  -0.169   1.581  0.00  0.00     0.034 A 
ATOM      7 Cl   UNL d   1       0.586  -0.617  -0.889  0.00  0.00    -0.070 Cl
ATOM      8 Cl1  UNL d   1      -2.207   0.592   0.264  0.00  0.00    -0.070 Cl
ENDROOT
TORSDOF 0
ENDMDL
