MODEL 1
REMARK minimizedAffinity -1.95616567
REMARK minimizedRMSD -1
REMARK  0 active torsions:
REMARK  status: ('A' for Active; 'I' for Inactive)
ROOT
ATOM      1  C   UNL d   1       1.024   1.109   3.027  0.00  0.00     0.020 A 
ATOM      2  C1  UNL d   1       1.556   0.972   1.746  0.00  0.00     0.020 A 
ATOM      3  C2  UNL d   1       0.767   0.465   0.712  0.00  0.00     0.034 A 
ATOM      4  C3  UNL d   1      -0.559   0.091   0.957  0.00  0.00     0.017 A 
ATOM      5  C4  UNL d   1      -1.093   0.229   2.244  0.00  0.00     0.017 A 
ATOM      6  C5  UNL d   1      -0.298   0.738   3.275  0.00  0.00     0.034 A 
ATOM      7 Cl   UNL d   1      -2.721  -0.211   2.623  0.00  0.00    -0.070 Cl
ATOM      8 Cl1  UNL d   1      -1.478  -0.529  -0.369  0.00  0.00    -0.070 Cl
ENDROOT
TORSDOF 0
ENDMDL
