MODEL 1
REMARK minimizedAffinity -3.5185678
REMARK minimizedRMSD -1
REMARK  1 active torsions:
REMARK  status: ('A' for Active; 'I' for Inactive)
REMARK    1  A    between atoms: C1_2  and  C2_3 
ROOT
ATOM      1  C2  UNL d   1       0.176  -0.502  -0.637  0.00  0.00    -0.081 A 
ATOM      2  C3  UNL d   1      -0.150   0.727  -1.224  0.00  0.00     0.006 A 
ATOM      3  C4  UNL d   1      -0.618   1.784  -0.441  0.00  0.00     0.002 A 
ATOM      4  C5  UNL d   1      -0.761   1.633   0.943  0.00  0.00    -0.080 A 
ATOM      5  C6  UNL d   1      -1.234   2.770   1.800  0.00  0.00     0.076 C 
ATOM      6  C7  UNL d   1      -0.452   0.400   1.527  0.00  0.00     0.002 A 
ATOM      7  C8  UNL d   1       0.016  -0.657   0.744  0.00  0.00     0.006 A 
ENDROOT
BRANCH   1   8
ATOM      8  C1  UNL d   1       0.743  -1.623  -1.470  0.00  0.00     0.054 C 
ATOM      9  C   UNL d   1      -0.199  -2.818  -1.503  0.00  0.00     0.018 C 
ENDBRANCH   1   8
TORSDOF 1
ENDMDL
