MODEL 1
REMARK minimizedAffinity -5.09223509
REMARK minimizedRMSD -1
REMARK  1 active torsions:
REMARK  status: ('A' for Active; 'I' for Inactive)
REMARK    1  A    between atoms: C1_2  and  C2_3 
ROOT
ATOM      1  C2  UNL d   1       0.266  -0.596  -0.302  0.00  0.00    -0.081 A 
ATOM      2  C3  UNL d   1       0.361  -0.398   1.081  0.00  0.00     0.006 A 
ATOM      3  C4  UNL d   1      -0.131   0.772   1.664  0.00  0.00     0.002 A 
ATOM      4  C5  UNL d   1      -0.732   1.759   0.876  0.00  0.00    -0.080 A 
ATOM      5  C6  UNL d   1      -1.292   3.007   1.493  0.00  0.00     0.076 C 
ATOM      6  C7  UNL d   1      -0.812   1.569  -0.508  0.00  0.00     0.002 A 
ATOM      7  C8  UNL d   1      -0.320   0.399  -1.092  0.00  0.00     0.006 A 
ENDROOT
BRANCH   1   8
ATOM      8  C1  UNL d   1       0.737  -1.885  -0.926  0.00  0.00     0.054 C 
ATOM      9  C   UNL d   1      -0.435  -2.721  -1.422  0.00  0.00     0.018 C 
ENDBRANCH   1   8
TORSDOF 1
ENDMDL
