MODEL 1
REMARK minimizedAffinity -2.86333537
REMARK minimizedRMSD -1
REMARK  1 active torsions:
REMARK  status: ('A' for Active; 'I' for Inactive)
REMARK    1  A    between atoms: C1_2  and  C2_3 
ROOT
ATOM      1  C2  UNL d   1      -0.153   0.778   1.287  0.00  0.00    -0.081 A 
ATOM      2  C3  UNL d   1       0.313   0.663  -0.029  0.00  0.00     0.006 A 
ATOM      3  C4  UNL d   1      -0.429   1.186  -1.091  0.00  0.00     0.002 A 
ATOM      4  C5  UNL d   1      -1.643   1.839  -0.855  0.00  0.00    -0.080 A 
ATOM      5  C6  UNL d   1      -2.434   2.432  -1.983  0.00  0.00     0.076 C 
ATOM      6  C7  UNL d   1      -2.117   1.939   0.458  0.00  0.00     0.002 A 
ATOM      7  C8  UNL d   1      -1.376   1.416   1.520  0.00  0.00     0.006 A 
ENDROOT
BRANCH   1   8
ATOM      8  C1  UNL d   1       0.676   0.272   2.440  0.00  0.00     0.054 C 
ATOM      9  C   UNL d   1       1.896  -0.494   1.950  0.00  0.00     0.018 C 
ENDBRANCH   1   8
TORSDOF 1
ENDMDL
