MODEL 1
REMARK minimizedAffinity -1.05200112
REMARK minimizedRMSD -1
REMARK  1 active torsions:
REMARK  status: ('A' for Active; 'I' for Inactive)
REMARK    1  A    between atoms: C1_2  and  C2_3 
ROOT
ATOM      1  C2  UNL d   1      -0.691   1.031  -0.038  0.00  0.00    -0.081 A 
ATOM      2  C3  UNL d   1      -0.330   1.500   1.231  0.00  0.00     0.006 A 
ATOM      3  C4  UNL d   1       0.745   0.929   1.917  0.00  0.00     0.002 A 
ATOM      4  C5  UNL d   1       1.480  -0.113   1.343  0.00  0.00    -0.080 A 
ATOM      5  C6  UNL d   1       2.655  -0.714   2.056  0.00  0.00     0.076 C 
ATOM      6  C7  UNL d   1       1.108  -0.593   0.083  0.00  0.00     0.002 A 
ATOM      7  C8  UNL d   1       0.033  -0.024  -0.604  0.00  0.00     0.006 A 
ENDROOT
BRANCH   1   8
ATOM      8  C1  UNL d   1      -1.809   1.687  -0.808  0.00  0.00     0.054 C 
ATOM      9  C   UNL d   1      -1.296   2.332  -2.088  0.00  0.00     0.018 C 
ENDBRANCH   1   8
TORSDOF 1
ENDMDL
