MODEL 1
REMARK minimizedAffinity -3.23888946
REMARK minimizedRMSD -1
REMARK  1 active torsions:
REMARK  status: ('A' for Active; 'I' for Inactive)
REMARK    1  A    between atoms: C1_2  and  C2_3 
ROOT
ATOM      1  C2  UNL d   1       0.411  -0.687  -0.492  0.00  0.00    -0.081 A 
ATOM      2  C3  UNL d   1       0.873  -0.400   0.798  0.00  0.00     0.006 A 
ATOM      3  C4  UNL d   1       0.460   0.761   1.457  0.00  0.00     0.002 A 
ATOM      4  C5  UNL d   1      -0.428   1.649   0.840  0.00  0.00    -0.080 A 
ATOM      5  C6  UNL d   1      -0.904   2.883   1.548  0.00  0.00     0.076 C 
ATOM      6  C7  UNL d   1      -0.877   1.370  -0.456  0.00  0.00     0.002 A 
ATOM      7  C8  UNL d   1      -0.463   0.210  -1.114  0.00  0.00     0.006 A 
ENDROOT
BRANCH   1   8
ATOM      8  C1  UNL d   1       0.804  -1.970  -1.179  0.00  0.00     0.054 C 
ATOM      9  C   UNL d   1      -0.417  -2.721  -1.689  0.00  0.00     0.018 C 
ENDBRANCH   1   8
TORSDOF 1
ENDMDL
