MODEL 1
REMARK minimizedAffinity 0.170119137
REMARK minimizedRMSD -1
REMARK  1 active torsions:
REMARK  status: ('A' for Active; 'I' for Inactive)
REMARK    1  A    between atoms: C1_2  and  C2_3 
ROOT
ATOM      1  C2  UNL d   1       0.206   1.599   1.140  0.00  0.00    -0.081 A 
ATOM      2  C3  UNL d   1       0.942   0.523   1.651  0.00  0.00     0.006 A 
ATOM      3  C4  UNL d   1       1.082  -0.654   0.911  0.00  0.00     0.002 A 
ATOM      4  C5  UNL d   1       0.496  -0.771  -0.354  0.00  0.00    -0.080 A 
ATOM      5  C6  UNL d   1       0.664  -2.018  -1.171  0.00  0.00     0.076 C 
ATOM      6  C7  UNL d   1      -0.254   0.297  -0.857  0.00  0.00     0.002 A 
ATOM      7  C8  UNL d   1      -0.395   1.474  -0.118  0.00  0.00     0.006 A 
ENDROOT
BRANCH   1   8
ATOM      8  C1  UNL d   1       0.107   2.893   1.907  0.00  0.00     0.054 C 
ATOM      9  C   UNL d   1       1.438   3.259   2.547  0.00  0.00     0.018 C 
ENDBRANCH   1   8
TORSDOF 1
ENDMDL
