MODEL 1
REMARK minimizedAffinity -2.46902323
REMARK minimizedRMSD -1
REMARK  1 active torsions:
REMARK  status: ('A' for Active; 'I' for Inactive)
REMARK    1  A    between atoms: C1_2  and  C2_3 
ROOT
ATOM      1  C2  UNL d   1      -0.195   1.160   1.143  0.00  0.00    -0.081 A 
ATOM      2  C3  UNL d   1       0.101  -0.120   1.627  0.00  0.00     0.006 A 
ATOM      3  C4  UNL d   1       0.167  -1.209   0.754  0.00  0.00     0.002 A 
ATOM      4  C5  UNL d   1      -0.053  -1.035  -0.616  0.00  0.00    -0.080 A 
ATOM      5  C6  UNL d   1       0.045  -2.190  -1.568  0.00  0.00     0.076 C 
ATOM      6  C7  UNL d   1      -0.366   0.241  -1.097  0.00  0.00     0.002 A 
ATOM      7  C8  UNL d   1      -0.433   1.330  -0.225  0.00  0.00     0.006 A 
ENDROOT
BRANCH   1   8
ATOM      8  C1  UNL d   1      -0.203   2.348   2.072  0.00  0.00     0.054 C 
ATOM      9  C   UNL d   1      -1.193   3.406   1.607  0.00  0.00     0.018 C 
ENDBRANCH   1   8
TORSDOF 1
ENDMDL
