MODEL 1
REMARK minimizedAffinity -2.85178041
REMARK minimizedRMSD -1
REMARK  1 active torsions:
REMARK  status: ('A' for Active; 'I' for Inactive)
REMARK    1  A    between atoms: C1_2  and  C2_3 
ROOT
ATOM      1  C2  UNL d   1       0.638  -1.034  -0.686  0.00  0.00    -0.081 A 
ATOM      2  C3  UNL d   1       0.969  -1.297   0.649  0.00  0.00     0.006 A 
ATOM      3  C4  UNL d   1       0.755  -0.331   1.635  0.00  0.00     0.002 A 
ATOM      4  C5  UNL d   1       0.200   0.910   1.304  0.00  0.00    -0.080 A 
ATOM      5  C6  UNL d   1      -0.063   1.945   2.358  0.00  0.00     0.076 C 
ATOM      6  C7  UNL d   1      -0.115   1.179  -0.032  0.00  0.00     0.002 A 
ATOM      7  C8  UNL d   1       0.099   0.213  -1.018  0.00  0.00     0.006 A 
ENDROOT
BRANCH   1   8
ATOM      8  C1  UNL d   1       0.807  -2.098  -1.741  0.00  0.00     0.054 C 
ATOM      9  C   UNL d   1       0.397  -3.467  -1.218  0.00  0.00     0.018 C 
ENDBRANCH   1   8
TORSDOF 1
ENDMDL
