MODEL 1
REMARK minimizedAffinity -0.929511249
REMARK minimizedRMSD -1
REMARK  0 active torsions:
REMARK  status: ('A' for Active; 'I' for Inactive)
ROOT
ATOM      1  C   UNL d   1      -0.332  -2.485   0.309  0.00  0.00     0.020 A 
ATOM      2  C1  UNL d   1       0.115  -1.192   0.579  0.00  0.00     0.020 A 
ATOM      3  C2  UNL d   1       1.482  -0.911   0.573  0.00  0.00     0.034 A 
ATOM      4  C3  UNL d   1       2.408  -1.924   0.296  0.00  0.00     0.017 A 
ATOM      5  C4  UNL d   1       1.959  -3.221   0.025  0.00  0.00     0.017 A 
ATOM      6  C5  UNL d   1       0.588  -3.497   0.032  0.00  0.00     0.034 A 
ATOM      7 Cl   UNL d   1       3.040  -4.522  -0.326  0.00  0.00    -0.070 Cl
ATOM      8 Cl1  UNL d   1       4.084  -1.504   0.305  0.00  0.00    -0.070 Cl
ENDROOT
TORSDOF 0
ENDMDL
