MODEL 1
REMARK minimizedAffinity 2.22842741
REMARK minimizedRMSD -1
REMARK  0 active torsions:
REMARK  status: ('A' for Active; 'I' for Inactive)
ROOT
ATOM      1  C   UNL d   1      -0.347  -0.408   1.112  0.00  0.00     0.020 A 
ATOM      2  C1  UNL d   1      -0.977  -1.632   0.893  0.00  0.00     0.020 A 
ATOM      3  C2  UNL d   1      -0.280  -2.677   0.282  0.00  0.00     0.034 A 
ATOM      4  C3  UNL d   1       1.051  -2.499  -0.112  0.00  0.00     0.017 A 
ATOM      5  C4  UNL d   1       1.683  -1.270   0.109  0.00  0.00     0.017 A 
ATOM      6  C5  UNL d   1       0.980  -0.227   0.721  0.00  0.00     0.034 A 
ATOM      7 Cl   UNL d   1       3.323  -0.976  -0.349  0.00  0.00    -0.070 Cl
ATOM      8 Cl1  UNL d   1       1.852  -3.834  -0.861  0.00  0.00    -0.070 Cl
ENDROOT
TORSDOF 0
ENDMDL
