MODEL 1
REMARK minimizedAffinity -4.28225422
REMARK minimizedRMSD -1
REMARK  0 active torsions:
REMARK  status: ('A' for Active; 'I' for Inactive)
ROOT
ATOM      1  C   UNL d   1       0.430  -0.647   1.170  0.00  0.00     0.020 A 
ATOM      2  C1  UNL d   1      -0.234  -1.781   0.704  0.00  0.00     0.020 A 
ATOM      3  C2  UNL d   1       0.497  -2.883   0.256  0.00  0.00     0.034 A 
ATOM      4  C3  UNL d   1       1.896  -2.854   0.273  0.00  0.00     0.017 A 
ATOM      5  C4  UNL d   1       2.562  -1.715   0.741  0.00  0.00     0.017 A 
ATOM      6  C5  UNL d   1       1.825  -0.614   1.189  0.00  0.00     0.034 A 
ATOM      7 Cl   UNL d   1       4.286  -1.605   0.792  0.00  0.00    -0.070 Cl
ATOM      8 Cl1  UNL d   1       2.736  -4.253  -0.296  0.00  0.00    -0.070 Cl
ENDROOT
TORSDOF 0
ENDMDL
