MODEL 1
REMARK minimizedAffinity 0.637712836
REMARK minimizedRMSD -1
REMARK  0 active torsions:
REMARK  status: ('A' for Active; 'I' for Inactive)
ROOT
ATOM      1  C   UNL d   1       0.325  -1.039   0.311  0.00  0.00     0.020 A 
ATOM      2  C1  UNL d   1      -0.155  -2.326   0.074  0.00  0.00     0.020 A 
ATOM      3  C2  UNL d   1       0.739  -3.368  -0.186  0.00  0.00     0.034 A 
ATOM      4  C3  UNL d   1       2.117  -3.123  -0.211  0.00  0.00     0.017 A 
ATOM      5  C4  UNL d   1       2.597  -1.830   0.027  0.00  0.00     0.017 A 
ATOM      6  C5  UNL d   1       1.698  -0.792   0.288  0.00  0.00     0.034 A 
ATOM      7 Cl   UNL d   1       4.284  -1.451   0.014  0.00  0.00    -0.070 Cl
ATOM      8 Cl1  UNL d   1       3.164  -4.458  -0.539  0.00  0.00    -0.070 Cl
ENDROOT
TORSDOF 0
ENDMDL
