MODEL 1
REMARK minimizedAffinity 2.5578723
REMARK minimizedRMSD -1
REMARK  0 active torsions:
REMARK  status: ('A' for Active; 'I' for Inactive)
ROOT
ATOM      1  C   UNL d   1      -0.402   0.209   2.141  0.00  0.00     0.020 A 
ATOM      2  C1  UNL d   1      -1.380  -0.564   1.517  0.00  0.00     0.020 A 
ATOM      3  C2  UNL d   1      -1.040  -1.380   0.436  0.00  0.00     0.034 A 
ATOM      4  C3  UNL d   1       0.281  -1.425  -0.024  0.00  0.00     0.017 A 
ATOM      5  C4  UNL d   1       1.262  -0.649   0.603  0.00  0.00     0.017 A 
ATOM      6  C5  UNL d   1       0.916   0.166   1.686  0.00  0.00     0.034 A 
ATOM      7 Cl   UNL d   1       2.913  -0.652   0.093  0.00  0.00    -0.070 Cl
ATOM      8 Cl1  UNL d   1       0.630  -2.457  -1.366  0.00  0.00    -0.070 Cl
ENDROOT
TORSDOF 0
ENDMDL
