MODEL 1
REMARK minimizedAffinity 4.74134445
REMARK minimizedRMSD -1
REMARK  0 active torsions:
REMARK  status: ('A' for Active; 'I' for Inactive)
ROOT
ATOM      1  C   UNL d   1      -1.236  -2.958   0.178  0.00  0.00     0.020 A 
ATOM      2  C1  UNL d   1      -0.053  -3.274  -0.489  0.00  0.00     0.020 A 
ATOM      3  C2  UNL d   1       1.092  -2.500  -0.284  0.00  0.00     0.034 A 
ATOM      4  C3  UNL d   1       1.056  -1.407   0.589  0.00  0.00     0.017 A 
ATOM      5  C4  UNL d   1      -0.132  -1.091   1.258  0.00  0.00     0.017 A 
ATOM      6  C5  UNL d   1      -1.275  -1.868   1.049  0.00  0.00     0.034 A 
ATOM      7 Cl   UNL d   1      -0.254   0.243   2.350  0.00  0.00    -0.070 Cl
ATOM      8 Cl1  UNL d   1       2.509  -0.495   0.795  0.00  0.00    -0.070 Cl
ENDROOT
TORSDOF 0
ENDMDL
