MODEL 1
REMARK minimizedAffinity 3.09035492
REMARK minimizedRMSD -1
REMARK  0 active torsions:
REMARK  status: ('A' for Active; 'I' for Inactive)
ROOT
ATOM      1  C   UNL d   1      -0.078  -0.154   1.023  0.00  0.00     0.020 A 
ATOM      2  C1  UNL d   1      -0.780  -1.220   0.461  0.00  0.00     0.020 A 
ATOM      3  C2  UNL d   1      -0.103  -2.386   0.095  0.00  0.00     0.034 A 
ATOM      4  C3  UNL d   1       1.279  -2.488   0.291  0.00  0.00     0.017 A 
ATOM      5  C4  UNL d   1       1.982  -1.418   0.855  0.00  0.00     0.017 A 
ATOM      6  C5  UNL d   1       1.300  -0.253   1.220  0.00  0.00     0.034 A 
ATOM      7 Cl   UNL d   1       3.688  -1.471   1.128  0.00  0.00    -0.070 Cl
ATOM      8 Cl1  UNL d   1       2.050  -3.959  -0.184  0.00  0.00    -0.070 Cl
ENDROOT
TORSDOF 0
ENDMDL
