MODEL 1
REMARK minimizedAffinity 2.75178456
REMARK minimizedRMSD -1
REMARK  0 active torsions:
REMARK  status: ('A' for Active; 'I' for Inactive)
ROOT
ATOM      1  C   UNL d   1      -2.139   0.869   1.808  0.00  0.00     0.020 A 
ATOM      2  C1  UNL d   1      -2.761   0.027   0.888  0.00  0.00     0.020 A 
ATOM      3  C2  UNL d   1      -2.088  -1.098   0.404  0.00  0.00     0.034 A 
ATOM      4  C3  UNL d   1      -0.790  -1.382   0.841  0.00  0.00     0.017 A 
ATOM      5  C4  UNL d   1      -0.166  -0.536   1.765  0.00  0.00     0.017 A 
ATOM      6  C5  UNL d   1      -0.844   0.588   2.246  0.00  0.00     0.034 A 
ATOM      7 Cl   UNL d   1       1.435  -0.823   2.351  0.00  0.00    -0.070 Cl
ATOM      8 Cl1  UNL d   1      -0.017  -2.790   0.201  0.00  0.00    -0.070 Cl
ENDROOT
TORSDOF 0
ENDMDL
