MODEL 1
REMARK minimizedAffinity 0.678598702
REMARK minimizedRMSD -1
REMARK  0 active torsions:
REMARK  status: ('A' for Active; 'I' for Inactive)
ROOT
ATOM      1  C   UNL d   1      -2.238  -0.312   0.888  0.00  0.00     0.020 A 
ATOM      2  C1  UNL d   1      -1.554   0.700   1.560  0.00  0.00     0.020 A 
ATOM      3  C2  UNL d   1      -0.163   0.647   1.672  0.00  0.00     0.034 A 
ATOM      4  C3  UNL d   1       0.548  -0.419   1.111  0.00  0.00     0.017 A 
ATOM      5  C4  UNL d   1      -0.139  -1.435   0.436  0.00  0.00     0.017 A 
ATOM      6  C5  UNL d   1      -1.532  -1.377   0.327  0.00  0.00     0.034 A 
ATOM      7 Cl   UNL d   1       0.670  -2.782  -0.283  0.00  0.00    -0.070 Cl
ATOM      8 Cl1  UNL d   1       2.267  -0.419   1.287  0.00  0.00    -0.070 Cl
ENDROOT
TORSDOF 0
ENDMDL
