MODEL 1
REMARK minimizedAffinity -1.71571612
REMARK minimizedRMSD -1
REMARK  0 active torsions:
REMARK  status: ('A' for Active; 'I' for Inactive)
ROOT
ATOM      1  C   UNL d   1      -0.901  -0.698   1.021  0.00  0.00     0.020 A 
ATOM      2  C1  UNL d   1      -1.283  -2.004   0.715  0.00  0.00     0.020 A 
ATOM      3  C2  UNL d   1      -0.339  -2.913   0.232  0.00  0.00     0.034 A 
ATOM      4  C3  UNL d   1       0.992  -2.517   0.054  0.00  0.00     0.017 A 
ATOM      5  C4  UNL d   1       1.375  -1.207   0.361  0.00  0.00     0.017 A 
ATOM      6  C5  UNL d   1       0.425  -0.301   0.844  0.00  0.00     0.034 A 
ATOM      7 Cl   UNL d   1       2.998  -0.646   0.168  0.00  0.00    -0.070 Cl
ATOM      8 Cl1  UNL d   1       2.106  -3.694  -0.546  0.00  0.00    -0.070 Cl
ENDROOT
TORSDOF 0
ENDMDL
