MODEL 1
REMARK minimizedAffinity 4.90694046
REMARK minimizedRMSD -1
REMARK  0 active torsions:
REMARK  status: ('A' for Active; 'I' for Inactive)
ROOT
ATOM      1  C   UNL d   1      -1.543  -1.457   1.084  0.00  0.00     0.020 A 
ATOM      2  C1  UNL d   1      -0.764  -0.357   1.442  0.00  0.00     0.020 A 
ATOM      3  C2  UNL d   1       0.581  -0.303   1.067  0.00  0.00     0.034 A 
ATOM      4  C3  UNL d   1       1.150  -1.349   0.333  0.00  0.00     0.017 A 
ATOM      5  C4  UNL d   1       0.367  -2.453  -0.026  0.00  0.00     0.017 A 
ATOM      6  C5  UNL d   1      -0.978  -2.503   0.352  0.00  0.00     0.034 A 
ATOM      7 Cl   UNL d   1       0.999  -3.782  -0.931  0.00  0.00    -0.070 Cl
ATOM      8 Cl1  UNL d   1       2.818  -1.215  -0.097  0.00  0.00    -0.070 Cl
ENDROOT
TORSDOF 0
ENDMDL
