MODEL 1
REMARK minimizedAffinity -2.06684232
REMARK minimizedRMSD -1
REMARK  0 active torsions:
REMARK  status: ('A' for Active; 'I' for Inactive)
ROOT
ATOM      1  C   UNL d   1      -0.916  -1.623   0.909  0.00  0.00     0.020 A 
ATOM      2  C1  UNL d   1      -0.268  -0.480   1.375  0.00  0.00     0.020 A 
ATOM      3  C2  UNL d   1       1.095  -0.300   1.128  0.00  0.00     0.034 A 
ATOM      4  C3  UNL d   1       1.813  -1.264   0.412  0.00  0.00     0.017 A 
ATOM      5  C4  UNL d   1       1.162  -2.411  -0.056  0.00  0.00     0.017 A 
ATOM      6  C5  UNL d   1      -0.203  -2.586   0.194  0.00  0.00     0.034 A 
ATOM      7 Cl   UNL d   1       1.982  -3.644  -0.947  0.00  0.00    -0.070 Cl
ATOM      8 Cl1  UNL d   1       3.496  -0.976   0.142  0.00  0.00    -0.070 Cl
ENDROOT
TORSDOF 0
ENDMDL
