MODEL 1
REMARK minimizedAffinity 1.48209882
REMARK minimizedRMSD -1
REMARK  0 active torsions:
REMARK  status: ('A' for Active; 'I' for Inactive)
ROOT
ATOM      1  C   UNL d   1      -1.033  -0.807   1.828  0.00  0.00     0.020 A 
ATOM      2  C1  UNL d   1      -0.074   0.154   2.146  0.00  0.00     0.020 A 
ATOM      3  C2  UNL d   1       1.204   0.076   1.588  0.00  0.00     0.034 A 
ATOM      4  C3  UNL d   1       1.526  -0.964   0.709  0.00  0.00     0.017 A 
ATOM      5  C4  UNL d   1       0.563  -1.928   0.391  0.00  0.00     0.017 A 
ATOM      6  C5  UNL d   1      -0.715  -1.846   0.952  0.00  0.00     0.034 A 
ATOM      7 Cl   UNL d   1       0.887  -3.241  -0.686  0.00  0.00    -0.070 Cl
ATOM      8 Cl1  UNL d   1       3.126  -0.997   0.056  0.00  0.00    -0.070 Cl
ENDROOT
TORSDOF 0
ENDMDL
