MODEL 1
REMARK minimizedAffinity 0.432493895
REMARK minimizedRMSD -1
REMARK  0 active torsions:
REMARK  status: ('A' for Active; 'I' for Inactive)
ROOT
ATOM      1  C   UNL d   1       0.253   0.191   0.948  0.00  0.00     0.020 A 
ATOM      2  C1  UNL d   1      -0.669  -0.838   0.762  0.00  0.00     0.020 A 
ATOM      3  C2  UNL d   1      -0.235  -2.098   0.345  0.00  0.00     0.034 A 
ATOM      4  C3  UNL d   1       1.125  -2.332   0.112  0.00  0.00     0.017 A 
ATOM      5  C4  UNL d   1       2.050  -1.299   0.299  0.00  0.00     0.017 A 
ATOM      6  C5  UNL d   1       1.610  -0.039   0.717  0.00  0.00     0.034 A 
ATOM      7 Cl   UNL d   1       3.745  -1.512   0.033  0.00  0.00    -0.070 Cl
ATOM      8 Cl1  UNL d   1       1.592  -3.915  -0.402  0.00  0.00    -0.070 Cl
ENDROOT
TORSDOF 0
ENDMDL
