MODEL 1
REMARK minimizedAffinity 1.89426422
REMARK minimizedRMSD -1
REMARK  0 active torsions:
REMARK  status: ('A' for Active; 'I' for Inactive)
ROOT
ATOM      1  C   UNL d   1      -5.623  -3.497   1.653  0.00  0.00     0.020 A 
ATOM      2  C1  UNL d   1      -5.597  -4.890   1.590  0.00  0.00     0.020 A 
ATOM      3  C2  UNL d   1      -5.694  -5.644   2.761  0.00  0.00     0.034 A 
ATOM      4  C3  UNL d   1      -5.818  -5.005   4.001  0.00  0.00     0.017 A 
ATOM      5  C4  UNL d   1      -5.845  -3.607   4.063  0.00  0.00     0.017 A 
ATOM      6  C5  UNL d   1      -5.747  -2.857   2.886  0.00  0.00     0.034 A 
ATOM      7 Cl   UNL d   1      -5.996  -2.748   5.555  0.00  0.00    -0.070 Cl
ATOM      8 Cl1  UNL d   1      -5.934  -6.000   5.409  0.00  0.00    -0.070 Cl
ENDROOT
TORSDOF 0
ENDMDL
