MODEL 1
REMARK minimizedAffinity 3.00558925
REMARK minimizedRMSD -1
REMARK  0 active torsions:
REMARK  status: ('A' for Active; 'I' for Inactive)
ROOT
ATOM      1  C   UNL d   1       0.221   0.046   1.406  0.00  0.00     0.020 A 
ATOM      2  C1  UNL d   1      -0.728  -0.878   0.971  0.00  0.00     0.020 A 
ATOM      3  C2  UNL d   1      -0.320  -2.057   0.346  0.00  0.00     0.034 A 
ATOM      4  C3  UNL d   1       1.042  -2.316   0.153  0.00  0.00     0.017 A 
ATOM      5  C4  UNL d   1       1.995  -1.388   0.590  0.00  0.00     0.017 A 
ATOM      6  C5  UNL d   1       1.580  -0.209   1.216  0.00  0.00     0.034 A 
ATOM      7 Cl   UNL d   1       3.693  -1.638   0.387  0.00  0.00    -0.070 Cl
ATOM      8 Cl1  UNL d   1       1.476  -3.796  -0.627  0.00  0.00    -0.070 Cl
ENDROOT
TORSDOF 0
ENDMDL
