MODEL 1
REMARK minimizedAffinity 3.30585146
REMARK minimizedRMSD -1
REMARK  0 active torsions:
REMARK  status: ('A' for Active; 'I' for Inactive)
ROOT
ATOM      1  C   UNL d   1       0.366  -3.551   0.031  0.00  0.00     0.020 A 
ATOM      2  C1  UNL d   1       0.373  -2.237   0.499  0.00  0.00     0.020 A 
ATOM      3  C2  UNL d   1       1.582  -1.554   0.646  0.00  0.00     0.034 A 
ATOM      4  C3  UNL d   1       2.790  -2.185   0.326  0.00  0.00     0.017 A 
ATOM      5  C4  UNL d   1       2.782  -3.503  -0.144  0.00  0.00     0.017 A 
ATOM      6  C5  UNL d   1       1.569  -4.182  -0.289  0.00  0.00     0.034 A 
ATOM      7 Cl   UNL d   1       4.232  -4.347  -0.559  0.00  0.00    -0.070 Cl
ATOM      8 Cl1  UNL d   1       4.247  -1.280   0.532  0.00  0.00    -0.070 Cl
ENDROOT
TORSDOF 0
ENDMDL
