MODEL 1
REMARK minimizedAffinity 11.7998495
REMARK minimizedRMSD -1
REMARK  0 active torsions:
REMARK  status: ('A' for Active; 'I' for Inactive)
ROOT
ATOM      1  C   UNL d   1       2.374  -1.375  -1.136  0.00  0.00     0.023 A 
ATOM      2  C1  UNL d   1       2.739  -2.677  -0.793  0.00  0.00     0.003 A 
ATOM      3  C2  UNL d   1       2.248  -3.758  -1.528  0.00  0.00     0.048 A 
ATOM      4  C3  UNL d   1       1.393  -3.530  -2.606  0.00  0.00     0.023 A 
ATOM      5  C4  UNL d   1       1.026  -2.229  -2.954  0.00  0.00     0.048 A 
ATOM      6  C5  UNL d   1       1.519  -1.152  -2.215  0.00  0.00     0.003 A 
ATOM      7  I   UNL d   1       0.661  -5.137  -3.701  0.00  0.00    -0.146 I 
ENDROOT
TORSDOF 0
ENDMDL
