MODEL 1
REMARK minimizedAffinity 12.74792
REMARK minimizedRMSD -1
REMARK  0 active torsions:
REMARK  status: ('A' for Active; 'I' for Inactive)
ROOT
ATOM      1  C   UNL d   1       1.708  -1.618  -1.505  0.00  0.00     0.023 A 
ATOM      2  C1  UNL d   1       1.017  -2.769  -1.884  0.00  0.00     0.003 A 
ATOM      3  C2  UNL d   1       1.494  -4.027  -1.511  0.00  0.00     0.048 A 
ATOM      4  C3  UNL d   1       2.663  -4.127  -0.758  0.00  0.00     0.023 A 
ATOM      5  C4  UNL d   1       3.358  -2.979  -0.375  0.00  0.00     0.048 A 
ATOM      6  C5  UNL d   1       2.877  -1.723  -0.751  0.00  0.00     0.003 A 
ATOM      7  I   UNL d   1       3.375  -5.999  -0.201  0.00  0.00    -0.146 I 
ENDROOT
TORSDOF 0
ENDMDL
