MODEL 1
REMARK minimizedAffinity 5.08719349
REMARK minimizedRMSD -1
REMARK  0 active torsions:
REMARK  status: ('A' for Active; 'I' for Inactive)
ROOT
ATOM      1  C   UNL d   1      -2.203  -4.316  -4.365  0.00  0.00     0.023 A 
ATOM      2  C1  UNL d   1      -2.436  -3.130  -3.670  0.00  0.00     0.003 A 
ATOM      3  C2  UNL d   1      -3.386  -2.219  -4.138  0.00  0.00     0.048 A 
ATOM      4  C3  UNL d   1      -4.100  -2.502  -5.301  0.00  0.00     0.023 A 
ATOM      5  C4  UNL d   1      -3.872  -3.689  -6.000  0.00  0.00     0.048 A 
ATOM      6  C5  UNL d   1      -2.920  -4.596  -5.529  0.00  0.00     0.003 A 
ATOM      7  I   UNL d   1      -5.514  -1.149  -6.000  0.00  0.00    -0.146 I 
ENDROOT
TORSDOF 0
ENDMDL
