MODEL 1
REMARK minimizedAffinity 13.4180622
REMARK minimizedRMSD -1
REMARK  0 active torsions:
REMARK  status: ('A' for Active; 'I' for Inactive)
ROOT
ATOM      1  C   UNL d   1      -1.081  -4.701  -2.398  0.00  0.00     0.023 A 
ATOM      2  C1  UNL d   1      -2.401  -5.147  -2.465  0.00  0.00     0.003 A 
ATOM      3  C2  UNL d   1      -3.252  -4.664  -3.462  0.00  0.00     0.048 A 
ATOM      4  C3  UNL d   1      -2.776  -3.737  -4.388  0.00  0.00     0.023 A 
ATOM      5  C4  UNL d   1      -1.455  -3.289  -4.325  0.00  0.00     0.048 A 
ATOM      6  C5  UNL d   1      -0.609  -3.774  -3.326  0.00  0.00     0.003 A 
ATOM      7  I   UNL d   1      -4.040  -3.017  -5.873  0.00  0.00    -0.146 I 
ENDROOT
TORSDOF 0
ENDMDL
