MODEL 1
REMARK minimizedAffinity 9.06715488
REMARK minimizedRMSD -1
REMARK  0 active torsions:
REMARK  status: ('A' for Active; 'I' for Inactive)
ROOT
ATOM      1  C   UNL d   1       1.334  -1.934  -2.242  0.00  0.00     0.023 A 
ATOM      2  C1  UNL d   1       1.178  -3.121  -2.958  0.00  0.00     0.003 A 
ATOM      3  C2  UNL d   1       1.811  -4.288  -2.524  0.00  0.00     0.048 A 
ATOM      4  C3  UNL d   1       2.598  -4.260  -1.373  0.00  0.00     0.023 A 
ATOM      5  C4  UNL d   1       2.756  -3.075  -0.653  0.00  0.00     0.048 A 
ATOM      6  C5  UNL d   1       2.122  -1.911  -1.091  0.00  0.00     0.003 A 
ATOM      7  I   UNL d   1       3.541  -5.996  -0.725  0.00  0.00    -0.146 I 
ENDROOT
TORSDOF 0
ENDMDL
