MODEL 1
REMARK minimizedAffinity 12.5694513
REMARK minimizedRMSD -1
REMARK  0 active torsions:
REMARK  status: ('A' for Active; 'I' for Inactive)
ROOT
ATOM      1  C   UNL d   1       3.594  -1.486   0.413  0.00  0.00     0.023 A 
ATOM      2  C1  UNL d   1       4.177  -0.219   0.383  0.00  0.00     0.003 A 
ATOM      3  C2  UNL d   1       3.722   0.738  -0.526  0.00  0.00     0.048 A 
ATOM      4  C3  UNL d   1       2.684   0.423  -1.401  0.00  0.00     0.023 A 
ATOM      5  C4  UNL d   1       2.097  -0.844  -1.374  0.00  0.00     0.048 A 
ATOM      6  C5  UNL d   1       2.556  -1.798  -0.464  0.00  0.00     0.003 A 
ATOM      7  I   UNL d   1       2.006   1.846  -2.755  0.00  0.00    -0.146 I 
ENDROOT
TORSDOF 0
ENDMDL
