MODEL 1
REMARK minimizedAffinity 1.08233428
REMARK minimizedRMSD -1
REMARK  0 active torsions:
REMARK  status: ('A' for Active; 'I' for Inactive)
ROOT
ATOM      1  C   UNL d   1       3.111  -0.428  -0.421  0.00  0.00     0.023 A 
ATOM      2  C1  UNL d   1       2.350  -0.127  -1.551  0.00  0.00     0.003 A 
ATOM      3  C2  UNL d   1       1.884  -1.153  -2.375  0.00  0.00     0.048 A 
ATOM      4  C3  UNL d   1       2.182  -2.479  -2.062  0.00  0.00     0.023 A 
ATOM      5  C4  UNL d   1       2.942  -2.785  -0.933  0.00  0.00     0.048 A 
ATOM      6  C5  UNL d   1       3.407  -1.755  -0.113  0.00  0.00     0.003 A 
ATOM      7  I   UNL d   1       1.490  -4.009  -3.287  0.00  0.00    -0.146 I 
ENDROOT
TORSDOF 0
ENDMDL
