MODEL 1
REMARK minimizedAffinity 11.2554636
REMARK minimizedRMSD -1
REMARK  0 active torsions:
REMARK  status: ('A' for Active; 'I' for Inactive)
ROOT
ATOM      1  C   UNL d   1       2.050   1.384  -1.953  0.00  0.00     0.023 A 
ATOM      2  C1  UNL d   1       2.548   1.212  -0.661  0.00  0.00     0.003 A 
ATOM      3  C2  UNL d   1       2.787  -0.073  -0.169  0.00  0.00     0.048 A 
ATOM      4  C3  UNL d   1       2.527  -1.181  -0.974  0.00  0.00     0.023 A 
ATOM      5  C4  UNL d   1       2.030  -1.014  -2.268  0.00  0.00     0.048 A 
ATOM      6  C5  UNL d   1       1.791   0.272  -2.755  0.00  0.00     0.003 A 
ATOM      7  I   UNL d   1       2.883  -3.095  -0.244  0.00  0.00    -0.146 I 
ENDROOT
TORSDOF 0
ENDMDL
