MODEL 1
REMARK minimizedAffinity 17.5425415
REMARK minimizedRMSD -1
REMARK  0 active torsions:
REMARK  status: ('A' for Active; 'I' for Inactive)
ROOT
ATOM      1  C   UNL d   1      -3.715   0.571   2.866  0.00  0.00     0.023 A 
ATOM      2  C1  UNL d   1      -3.217   1.865   2.711  0.00  0.00     0.003 A 
ATOM      3  C2  UNL d   1      -1.862   2.064   2.436  0.00  0.00     0.048 A 
ATOM      4  C3  UNL d   1      -1.012   0.965   2.317  0.00  0.00     0.023 A 
ATOM      5  C4  UNL d   1      -1.506  -0.331   2.471  0.00  0.00     0.048 A 
ATOM      6  C5  UNL d   1      -2.861  -0.525   2.746  0.00  0.00     0.003 A 
ATOM      7  I   UNL d   1       1.004   1.259   1.907  0.00  0.00    -0.146 I 
ENDROOT
TORSDOF 0
ENDMDL
