MODEL 1
REMARK minimizedAffinity 12.9168034
REMARK minimizedRMSD -1
REMARK  0 active torsions:
REMARK  status: ('A' for Active; 'I' for Inactive)
ROOT
ATOM      1  C   UNL d   1       2.624  -5.629   1.519  0.00  0.00     0.023 A 
ATOM      2  C1  UNL d   1       1.281  -5.257   1.458  0.00  0.00     0.003 A 
ATOM      3  C2  UNL d   1       0.612  -5.255   0.233  0.00  0.00     0.048 A 
ATOM      4  C3  UNL d   1       1.291  -5.626  -0.927  0.00  0.00     0.023 A 
ATOM      5  C4  UNL d   1       2.634  -6.000  -0.870  0.00  0.00     0.048 A 
ATOM      6  C5  UNL d   1       3.300  -6.000   0.357  0.00  0.00     0.003 A 
ATOM      7  I   UNL d   1       0.296  -5.623  -2.752  0.00  0.00    -0.146 I 
ENDROOT
TORSDOF 0
ENDMDL
