MODEL 1
REMARK minimizedAffinity 16.7949123
REMARK minimizedRMSD -1
REMARK  0 active torsions:
REMARK  status: ('A' for Active; 'I' for Inactive)
ROOT
ATOM      1  C   UNL d   1       0.970   6.000  -0.996  0.00  0.00     0.023 A 
ATOM      2  C1  UNL d   1       0.865   5.719   0.367  0.00  0.00     0.003 A 
ATOM      3  C2  UNL d   1       1.279   4.479   0.859  0.00  0.00     0.048 A 
ATOM      4  C3  UNL d   1       1.799   3.527  -0.016  0.00  0.00     0.023 A 
ATOM      5  C4  UNL d   1       1.907   3.804  -1.380  0.00  0.00     0.048 A 
ATOM      6  C5  UNL d   1       1.490   5.044  -1.868  0.00  0.00     0.003 A 
ATOM      7  I   UNL d   1       2.417   1.681   0.714  0.00  0.00    -0.146 I 
ENDROOT
TORSDOF 0
ENDMDL
