MODEL 1
REMARK minimizedAffinity 11.041419
REMARK minimizedRMSD -1
REMARK  0 active torsions:
REMARK  status: ('A' for Active; 'I' for Inactive)
ROOT
ATOM      1  C   UNL d   1       1.624  -3.320  -2.173  0.00  0.00     0.023 A 
ATOM      2  C1  UNL d   1       2.238  -3.310  -0.920  0.00  0.00     0.003 A 
ATOM      3  C2  UNL d   1       2.497  -2.097  -0.278  0.00  0.00     0.048 A 
ATOM      4  C3  UNL d   1       2.137  -0.899  -0.894  0.00  0.00     0.023 A 
ATOM      5  C4  UNL d   1       1.521  -0.904  -2.146  0.00  0.00     0.048 A 
ATOM      6  C5  UNL d   1       1.266  -2.119  -2.785  0.00  0.00     0.003 A 
ATOM      7  I   UNL d   1       2.521   0.908   0.060  0.00  0.00    -0.146 I 
ENDROOT
TORSDOF 0
ENDMDL
