MODEL 1
REMARK minimizedAffinity 5.44717503
REMARK minimizedRMSD -1
REMARK  0 active torsions:
REMARK  status: ('A' for Active; 'I' for Inactive)
ROOT
ATOM      1  C   UNL d   1       3.033  -5.974  -2.150  0.00  0.00     0.023 A 
ATOM      2  C1  UNL d   1       3.638  -5.116  -1.231  0.00  0.00     0.003 A 
ATOM      3  C2  UNL d   1       3.204  -3.793  -1.119  0.00  0.00     0.048 A 
ATOM      4  C3  UNL d   1       2.163  -3.336  -1.927  0.00  0.00     0.023 A 
ATOM      5  C4  UNL d   1       1.555  -4.191  -2.847  0.00  0.00     0.048 A 
ATOM      6  C5  UNL d   1       1.993  -5.512  -2.957  0.00  0.00     0.003 A 
ATOM      7  I   UNL d   1       1.515  -1.368  -1.761  0.00  0.00    -0.146 I 
ENDROOT
TORSDOF 0
ENDMDL
