MODEL 1
REMARK minimizedAffinity 7.08991289
REMARK minimizedRMSD -1
REMARK  0 active torsions:
REMARK  status: ('A' for Active; 'I' for Inactive)
ROOT
ATOM      1  C   UNL d   1       4.863   2.050   0.698  0.00  0.00     0.023 A 
ATOM      2  C1  UNL d   1       4.989   2.895  -0.405  0.00  0.00     0.003 A 
ATOM      3  C2  UNL d   1       3.938   3.743  -0.761  0.00  0.00     0.048 A 
ATOM      4  C3  UNL d   1       2.764   3.742  -0.008  0.00  0.00     0.023 A 
ATOM      5  C4  UNL d   1       2.633   2.898   1.096  0.00  0.00     0.048 A 
ATOM      6  C5  UNL d   1       3.686   2.052   1.447  0.00  0.00     0.003 A 
ATOM      7  I   UNL d   1       1.198   5.003  -0.535  0.00  0.00    -0.146 I 
ENDROOT
TORSDOF 0
ENDMDL
