MODEL 1
REMARK minimizedAffinity 2.51406312
REMARK minimizedRMSD -1
REMARK  0 active torsions:
REMARK  status: ('A' for Active; 'I' for Inactive)
ROOT
ATOM      1  C   UNL d   1      -3.044  -5.269  -5.995  0.00  0.00     0.023 A 
ATOM      2  C1  UNL d   1      -2.504  -3.983  -5.983  0.00  0.00     0.003 A 
ATOM      3  C2  UNL d   1      -3.347  -2.870  -5.973  0.00  0.00     0.048 A 
ATOM      4  C3  UNL d   1      -4.730  -3.051  -5.975  0.00  0.00     0.023 A 
ATOM      5  C4  UNL d   1      -5.275  -4.336  -5.987  0.00  0.00     0.048 A 
ATOM      6  C5  UNL d   1      -4.428  -5.445  -5.997  0.00  0.00     0.003 A 
ATOM      7  I   UNL d   1      -5.987  -1.396  -5.960  0.00  0.00    -0.146 I 
ENDROOT
TORSDOF 0
ENDMDL
