MODEL 1
REMARK minimizedAffinity 19.0761585
REMARK minimizedRMSD -1
REMARK  0 active torsions:
REMARK  status: ('A' for Active; 'I' for Inactive)
ROOT
ATOM      1  C   UNL d   1      -2.586   0.944   2.998  0.00  0.00     0.023 A 
ATOM      2  C1  UNL d   1      -2.776   0.562   1.670  0.00  0.00     0.003 A 
ATOM      3  C2  UNL d   1      -3.755  -0.379   1.346  0.00  0.00     0.048 A 
ATOM      4  C3  UNL d   1      -4.542  -0.934   2.355  0.00  0.00     0.023 A 
ATOM      5  C4  UNL d   1      -4.355  -0.554   3.685  0.00  0.00     0.048 A 
ATOM      6  C5  UNL d   1      -3.374   0.386   4.005  0.00  0.00     0.003 A 
ATOM      7  I   UNL d   1      -6.000  -2.335   1.876  0.00  0.00    -0.146 I 
ENDROOT
TORSDOF 0
ENDMDL
