MODEL 1
REMARK minimizedAffinity -3.37860751
REMARK minimizedRMSD -1
REMARK  0 active torsions:
REMARK  status: ('A' for Active; 'I' for Inactive)
ROOT
ATOM      1  C   UNL d   1       0.405  -0.422  -1.174  0.00  0.00     0.172 C 
ATOM      2  N   UNL d   1      -0.057   0.108   0.087  0.00  0.00    -0.070 N 
ATOM      3  C1  UNL d   1       0.742   0.525   1.118  0.00  0.00    -0.004 A 
ATOM      4  C2  UNL d   1      -0.077   0.961   2.137  0.00  0.00    -0.047 A 
ATOM      5  C3  UNL d   1      -1.415   0.799   1.704  0.00  0.00    -0.047 A 
ATOM      6  C4  UNL d   1      -1.373   0.270   0.431  0.00  0.00    -0.004 A 
ENDROOT
TORSDOF 0
ENDMDL
