MODEL 1
REMARK minimizedAffinity -4.12392616
REMARK minimizedRMSD -1
REMARK  0 active torsions:
REMARK  status: ('A' for Active; 'I' for Inactive)
ROOT
ATOM      1  C   UNL d   1       0.700  -0.365  -0.782  0.00  0.00     0.172 C 
ATOM      2  N   UNL d   1       0.128   0.252   0.392  0.00  0.00    -0.070 N 
ATOM      3  C1  UNL d   1       0.824   0.662   1.497  0.00  0.00    -0.004 A 
ATOM      4  C2  UNL d   1      -0.079   1.198   2.390  0.00  0.00    -0.047 A 
ATOM      5  C3  UNL d   1      -1.362   1.105   1.802  0.00  0.00    -0.047 A 
ATOM      6  C4  UNL d   1      -1.205   0.515   0.565  0.00  0.00    -0.004 A 
ENDROOT
TORSDOF 0
ENDMDL
