MODEL 1
REMARK minimizedAffinity -3.10026932
REMARK minimizedRMSD -1
REMARK  0 active torsions:
REMARK  status: ('A' for Active; 'I' for Inactive)
ROOT
ATOM      1  C   UNL d   1       0.739  -0.864  -0.260  0.00  0.00     0.172 C 
ATOM      2  N   UNL d   1      -0.137  -0.085   0.584  0.00  0.00    -0.070 N 
ATOM      3  C1  UNL d   1      -1.505  -0.077   0.524  0.00  0.00    -0.004 A 
ATOM      4  C2  UNL d   1      -1.965   0.791   1.490  0.00  0.00    -0.047 A 
ATOM      5  C3  UNL d   1      -0.834   1.324   2.154  0.00  0.00    -0.047 A 
ATOM      6  C4  UNL d   1       0.284   0.765   1.573  0.00  0.00    -0.004 A 
ENDROOT
TORSDOF 0
ENDMDL
