MODEL 1
REMARK minimizedAffinity -3.60136914
REMARK minimizedRMSD -1
REMARK  0 active torsions:
REMARK  status: ('A' for Active; 'I' for Inactive)
ROOT
ATOM      1  C   UNL d   1       0.761  -0.376  -0.588  0.00  0.00     0.172 C 
ATOM      2  N   UNL d   1       0.117   0.010   0.645  0.00  0.00    -0.070 N 
ATOM      3  C1  UNL d   1       0.703   0.022   1.882  0.00  0.00    -0.004 A 
ATOM      4  C2  UNL d   1      -0.239   0.450   2.792  0.00  0.00    -0.047 A 
ATOM      5  C3  UNL d   1      -1.434   0.703   2.078  0.00  0.00    -0.047 A 
ATOM      6  C4  UNL d   1      -1.185   0.422   0.750  0.00  0.00    -0.004 A 
ENDROOT
TORSDOF 0
ENDMDL
