MODEL 1
REMARK minimizedAffinity -2.89147115
REMARK minimizedRMSD -1
REMARK  0 active torsions:
REMARK  status: ('A' for Active; 'I' for Inactive)
ROOT
ATOM      1  C   UNL d   1       0.575  -0.776  -0.882  0.00  0.00     0.172 C 
ATOM      2  N   UNL d   1      -0.185  -0.160   0.180  0.00  0.00    -0.070 N 
ATOM      3  C1  UNL d   1      -1.540   0.037   0.182  0.00  0.00    -0.004 A 
ATOM      4  C2  UNL d   1      -1.876   0.650   1.369  0.00  0.00    -0.047 A 
ATOM      5  C3  UNL d   1      -0.681   0.829   2.106  0.00  0.00    -0.047 A 
ATOM      6  C4  UNL d   1       0.350   0.319   1.347  0.00  0.00    -0.004 A 
ENDROOT
TORSDOF 0
ENDMDL
