MODEL 1
REMARK minimizedAffinity -3.79732323
REMARK minimizedRMSD -1
REMARK  0 active torsions:
REMARK  status: ('A' for Active; 'I' for Inactive)
ROOT
ATOM      1  C   UNL d   1       0.750  -0.875   0.094  0.00  0.00     0.172 C 
ATOM      2  N   UNL d   1       0.057   0.051   0.959  0.00  0.00    -0.070 N 
ATOM      3  C1  UNL d   1       0.624   1.118   1.602  0.00  0.00    -0.004 A 
ATOM      4  C2  UNL d   1      -0.366   1.749   2.324  0.00  0.00    -0.047 A 
ATOM      5  C3  UNL d   1      -1.569   1.035   2.108  0.00  0.00    -0.047 A 
ATOM      6  C4  UNL d   1      -1.278  -0.011   1.259  0.00  0.00    -0.004 A 
ENDROOT
TORSDOF 0
ENDMDL
