MODEL 1
REMARK minimizedAffinity -3.82248688
REMARK minimizedRMSD -1
REMARK  0 active torsions:
REMARK  status: ('A' for Active; 'I' for Inactive)
ROOT
ATOM      1  C   UNL d   1       0.378   0.017  -1.134  0.00  0.00     0.172 C 
ATOM      2  N   UNL d   1      -0.219   0.459   0.105  0.00  0.00    -0.070 N 
ATOM      3  C1  UNL d   1      -1.557   0.657   0.320  0.00  0.00    -0.004 A 
ATOM      4  C2  UNL d   1      -1.717   1.075   1.623  0.00  0.00    -0.047 A 
ATOM      5  C3  UNL d   1      -0.431   1.131   2.211  0.00  0.00    -0.047 A 
ATOM      6  C4  UNL d   1       0.478   0.745   1.249  0.00  0.00    -0.004 A 
ENDROOT
TORSDOF 0
ENDMDL
