MODEL 1
REMARK minimizedAffinity -2.96080017
REMARK minimizedRMSD -1
REMARK  0 active torsions:
REMARK  status: ('A' for Active; 'I' for Inactive)
ROOT
ATOM      1  C   UNL d   1      -1.166   1.588   2.550  0.00  0.00     0.172 C 
ATOM      2  N   UNL d   1      -0.768   0.822   1.393  0.00  0.00    -0.070 N 
ATOM      3  C1  UNL d   1       0.507   0.410   1.109  0.00  0.00    -0.004 A 
ATOM      4  C2  UNL d   1       0.469  -0.292  -0.076  0.00  0.00    -0.047 A 
ATOM      5  C3  UNL d   1      -0.874  -0.301  -0.521  0.00  0.00    -0.047 A 
ATOM      6  C4  UNL d   1      -1.618   0.396   0.408  0.00  0.00    -0.004 A 
ENDROOT
TORSDOF 0
ENDMDL
