MODEL 1
REMARK minimizedAffinity -3.59078097
REMARK minimizedRMSD -1
REMARK  0 active torsions:
REMARK  status: ('A' for Active; 'I' for Inactive)
ROOT
ATOM      1  C   UNL d   1      -1.545   0.720   2.384  0.00  0.00     0.172 C 
ATOM      2  N   UNL d   1      -1.003   0.087   1.205  0.00  0.00    -0.070 N 
ATOM      3  C1  UNL d   1      -1.720  -0.297   0.103  0.00  0.00    -0.004 A 
ATOM      4  C2  UNL d   1      -0.842  -0.859  -0.798  0.00  0.00    -0.047 A 
ATOM      5  C3  UNL d   1       0.448  -0.812  -0.218  0.00  0.00    -0.047 A 
ATOM      6  C4  UNL d   1       0.319  -0.222   1.022  0.00  0.00    -0.004 A 
ENDROOT
TORSDOF 0
ENDMDL
