MODEL 1
REMARK minimizedAffinity -2.75822306
REMARK minimizedRMSD -1
REMARK  0 active torsions:
REMARK  status: ('A' for Active; 'I' for Inactive)
ROOT
ATOM      1  C   UNL d   1      -0.018  -0.529  -0.955  0.00  0.00     0.172 C 
ATOM      2  N   UNL d   1      -0.255   0.129   0.308  0.00  0.00    -0.070 N 
ATOM      3  C1  UNL d   1       0.711   0.581   1.167  0.00  0.00    -0.004 A 
ATOM      4  C2  UNL d   1       0.079   1.146   2.254  0.00  0.00    -0.047 A 
ATOM      5  C3  UNL d   1      -1.316   1.029   2.041  0.00  0.00    -0.047 A 
ATOM      6  C4  UNL d   1      -1.494   0.396   0.829  0.00  0.00    -0.004 A 
ENDROOT
TORSDOF 0
ENDMDL
