MODEL 1
REMARK minimizedAffinity -3.07469153
REMARK minimizedRMSD -1
REMARK  0 active torsions:
REMARK  status: ('A' for Active; 'I' for Inactive)
ROOT
ATOM      1  C   UNL d   1       1.166  -1.268  -0.875  0.00  0.00     0.172 C 
ATOM      2  N   UNL d   1       0.325  -0.520   0.030  0.00  0.00    -0.070 N 
ATOM      3  C1  UNL d   1       0.746   0.119   1.165  0.00  0.00    -0.004 A 
ATOM      4  C2  UNL d   1      -0.353   0.714   1.747  0.00  0.00    -0.047 A 
ATOM      5  C3  UNL d   1      -1.473   0.422   0.932  0.00  0.00    -0.047 A 
ATOM      6  C4  UNL d   1      -1.024  -0.343  -0.123  0.00  0.00    -0.004 A 
ENDROOT
TORSDOF 0
ENDMDL
