MODEL 1
REMARK minimizedAffinity 7.63950157
REMARK minimizedRMSD -1
REMARK  3 active torsions:
REMARK  status: ('A' for Active; 'I' for Inactive)
REMARK    1  A    between atoms: C3'_2  and  C2'_3 
REMARK    2  A    between atoms: C2'_3  and  C1'_4 
REMARK    3  A    between atoms: C1'_4  and  C1_5 
ROOT
ATOM      1  C1  N4B d   1      -3.312  -0.866   2.227  0.00  0.00    -0.075 A 
ATOM      2  C2  N4B d   1      -4.233  -1.881   2.567  0.00  0.00     0.002 A 
ATOM      3  C3  N4B d   1      -4.858  -1.859   3.790  0.00  0.00     0.002 A 
ATOM      4  C4  N4B d   1      -4.566  -0.848   4.692  0.00  0.00    -0.004 A 
ATOM      5  C5  N4B d   1      -3.695   0.143   4.346  0.00  0.00     0.002 A 
ATOM      6  C6  N4B d   1      -3.062   0.137   3.119  0.00  0.00     0.002 A 
ENDROOT
BRANCH   1   7
ATOM      7  C1' N4B d   1      -2.539  -0.894   0.937  0.00  0.00     0.057 C 
BRANCH   7   8
ATOM      8  C2' N4B d   1      -1.151  -1.471   1.197  0.00  0.00     0.009 C 
BRANCH   8   9
ATOM      9  C3' N4B d   1      -0.178  -0.412   1.688  0.00  0.00     0.004 C 
ATOM     10  C4' N4B d   1       1.088  -0.998   2.237  0.00  0.00     0.003 C 
ENDBRANCH   8   9
ENDBRANCH   7   8
ENDBRANCH   1   7
TORSDOF 3
ENDMDL
