MODEL 1
REMARK minimizedAffinity 8.70196915
REMARK minimizedRMSD -1
REMARK  3 active torsions:
REMARK  status: ('A' for Active; 'I' for Inactive)
REMARK    1  A    between atoms: C3'_2  and  C2'_3 
REMARK    2  A    between atoms: C2'_3  and  C1'_4 
REMARK    3  A    between atoms: C1'_4  and  C1_5 
ROOT
ATOM      1  C1  N4B d   1      -4.493  -0.154   4.391  0.00  0.00    -0.075 A 
ATOM      2  C2  N4B d   1      -5.215  -1.211   4.987  0.00  0.00     0.002 A 
ATOM      3  C3  N4B d   1      -5.544  -2.320   4.248  0.00  0.00     0.002 A 
ATOM      4  C4  N4B d   1      -5.181  -2.386   2.911  0.00  0.00    -0.004 A 
ATOM      5  C5  N4B d   1      -4.462  -1.372   2.349  0.00  0.00     0.002 A 
ATOM      6  C6  N4B d   1      -4.121  -0.253   3.081  0.00  0.00     0.002 A 
ENDROOT
BRANCH   1   7
ATOM      7  C1' N4B d   1      -4.184   1.116   5.135  0.00  0.00     0.057 C 
BRANCH   7   8
ATOM      8  C2' N4B d   1      -2.940   0.905   5.992  0.00  0.00     0.009 C 
BRANCH   8   9
ATOM      9  C3' N4B d   1      -1.676   0.842   5.152  0.00  0.00     0.004 C 
ATOM     10  C4' N4B d   1      -0.539   0.169   5.862  0.00  0.00     0.003 C 
ENDBRANCH   8   9
ENDBRANCH   7   8
ENDBRANCH   1   7
TORSDOF 3
ENDMDL
