MODEL 1
REMARK minimizedAffinity 19.8165264
REMARK minimizedRMSD -1
REMARK  3 active torsions:
REMARK  status: ('A' for Active; 'I' for Inactive)
REMARK    1  A    between atoms: C3'_2  and  C2'_3 
REMARK    2  A    between atoms: C2'_3  and  C1'_4 
REMARK    3  A    between atoms: C1'_4  and  C1_5 
ROOT
ATOM      1  C1  N4B d   1      -5.615   1.614  -1.358  0.00  0.00    -0.075 A 
ATOM      2  C2  N4B d   1      -5.875   1.164  -2.671  0.00  0.00     0.002 A 
ATOM      3  C3  N4B d   1      -5.998  -0.180  -2.925  0.00  0.00     0.002 A 
ATOM      4  C4  N4B d   1      -5.847  -1.090  -1.890  0.00  0.00    -0.004 A 
ATOM      5  C5  N4B d   1      -5.621  -0.646  -0.620  0.00  0.00     0.002 A 
ATOM      6  C6  N4B d   1      -5.499   0.702  -0.349  0.00  0.00     0.002 A 
ENDROOT
BRANCH   1   7
ATOM      7  C1' N4B d   1      -5.388   3.068  -1.047  0.00  0.00     0.057 C 
BRANCH   7   8
ATOM      8  C2' N4B d   1      -4.357   3.633  -2.020  0.00  0.00     0.009 C 
BRANCH   8   9
ATOM      9  C3' N4B d   1      -3.578   4.788  -1.415  0.00  0.00     0.004 C 
ATOM     10  C4' N4B d   1      -4.448   5.962  -1.077  0.00  0.00     0.003 C 
ENDBRANCH   8   9
ENDBRANCH   7   8
ENDBRANCH   1   7
TORSDOF 3
ENDMDL
