MODEL 1
REMARK minimizedAffinity 18.3466282
REMARK minimizedRMSD -1
REMARK  3 active torsions:
REMARK  status: ('A' for Active; 'I' for Inactive)
REMARK    1  A    between atoms: C3'_2  and  C2'_3 
REMARK    2  A    between atoms: C2'_3  and  C1'_4 
REMARK    3  A    between atoms: C1'_4  and  C1_5 
ROOT
ATOM      1  C1  N4B d   1       2.973  -0.186   1.870  0.00  0.00    -0.075 A 
ATOM      2  C2  N4B d   1       3.969   0.614   2.474  0.00  0.00     0.002 A 
ATOM      3  C3  N4B d   1       4.332   1.808   1.901  0.00  0.00     0.002 A 
ATOM      4  C4  N4B d   1       3.729   2.213   0.719  0.00  0.00    -0.004 A 
ATOM      5  C5  N4B d   1       2.750   1.447   0.156  0.00  0.00     0.002 A 
ATOM      6  C6  N4B d   1       2.373   0.247   0.723  0.00  0.00     0.002 A 
ENDROOT
BRANCH   1   7
ATOM      7  C1' N4B d   1       2.604  -1.539   2.412  0.00  0.00     0.057 C 
BRANCH   7   8
ATOM      8  C2' N4B d   1       1.340  -1.412   3.258  0.00  0.00     0.009 C 
BRANCH   8   9
ATOM      9  C3' N4B d   1       0.114  -1.933   2.528  0.00  0.00     0.004 C 
ATOM     10  C4' N4B d   1      -0.819  -0.838   2.105  0.00  0.00     0.003 C 
ENDBRANCH   8   9
ENDBRANCH   7   8
ENDBRANCH   1   7
TORSDOF 3
ENDMDL
