MODEL 1
REMARK minimizedAffinity 15.0267458
REMARK minimizedRMSD -1
REMARK  3 active torsions:
REMARK  status: ('A' for Active; 'I' for Inactive)
REMARK    1  A    between atoms: C3'_2  and  C2'_3 
REMARK    2  A    between atoms: C2'_3  and  C1'_4 
REMARK    3  A    between atoms: C1'_4  and  C1_5 
ROOT
ATOM      1  C1  N4B d   1      -2.148   0.394   3.951  0.00  0.00    -0.075 A 
ATOM      2  C2  N4B d   1      -0.848  -0.149   3.862  0.00  0.00     0.002 A 
ATOM      3  C3  N4B d   1      -0.520  -0.978   2.817  0.00  0.00     0.002 A 
ATOM      4  C4  N4B d   1      -1.478  -1.290   1.863  0.00  0.00    -0.004 A 
ATOM      5  C5  N4B d   1      -2.724  -0.740   1.943  0.00  0.00     0.002 A 
ATOM      6  C6  N4B d   1      -3.066   0.097   2.986  0.00  0.00     0.002 A 
ENDROOT
BRANCH   1   7
ATOM      7  C1' N4B d   1      -2.578   1.236   5.122  0.00  0.00     0.057 C 
BRANCH   7   8
ATOM      8  C2' N4B d   1      -3.861   1.979   4.760  0.00  0.00     0.009 C 
BRANCH   8   9
ATOM      9  C3' N4B d   1      -4.549   2.556   5.985  0.00  0.00     0.004 C 
ATOM     10  C4' N4B d   1      -4.557   4.055   5.995  0.00  0.00     0.003 C 
ENDBRANCH   8   9
ENDBRANCH   7   8
ENDBRANCH   1   7
TORSDOF 3
ENDMDL
