MODEL 1
REMARK minimizedAffinity 5.47578716
REMARK minimizedRMSD -1
REMARK  3 active torsions:
REMARK  status: ('A' for Active; 'I' for Inactive)
REMARK    1  A    between atoms: C3'_2  and  C2'_3 
REMARK    2  A    between atoms: C2'_3  and  C1'_4 
REMARK    3  A    between atoms: C1'_4  and  C1_5 
ROOT
ATOM      1  C1  N4B d   1      -0.551  -1.099   2.737  0.00  0.00    -0.075 A 
ATOM      2  C2  N4B d   1      -0.631  -0.401   3.962  0.00  0.00     0.002 A 
ATOM      3  C3  N4B d   1      -1.632   0.518   4.165  0.00  0.00     0.002 A 
ATOM      4  C4  N4B d   1      -2.547   0.768   3.154  0.00  0.00    -0.004 A 
ATOM      5  C5  N4B d   1      -2.478   0.072   1.983  0.00  0.00     0.002 A 
ATOM      6  C6  N4B d   1      -1.480  -0.857   1.767  0.00  0.00     0.002 A 
ENDROOT
BRANCH   1   7
ATOM      7  C1' N4B d   1       0.576  -2.050   2.437  0.00  0.00     0.057 C 
BRANCH   7   8
ATOM      8  C2' N4B d   1       1.864  -1.510   3.052  0.00  0.00     0.009 C 
BRANCH   8   9
ATOM      9  C3' N4B d   1       2.824  -2.625   3.430  0.00  0.00     0.004 C 
ATOM     10  C4' N4B d   1       2.174  -3.697   4.253  0.00  0.00     0.003 C 
ENDBRANCH   8   9
ENDBRANCH   7   8
ENDBRANCH   1   7
TORSDOF 3
ENDMDL
