MODEL 1
REMARK minimizedAffinity 11.9759569
REMARK minimizedRMSD -1
REMARK  3 active torsions:
REMARK  status: ('A' for Active; 'I' for Inactive)
REMARK    1  A    between atoms: C3'_2  and  C2'_3 
REMARK    2  A    between atoms: C2'_3  and  C1'_4 
REMARK    3  A    between atoms: C1'_4  and  C1_5 
ROOT
ATOM      1  C1  N4B d   1      -1.586   0.008   2.757  0.00  0.00    -0.075 A 
ATOM      2  C2  N4B d   1      -2.584  -0.591   1.957  0.00  0.00     0.002 A 
ATOM      3  C3  N4B d   1      -2.262  -1.631   1.121  0.00  0.00     0.002 A 
ATOM      4  C4  N4B d   1      -0.950  -2.076   1.054  0.00  0.00    -0.004 A 
ATOM      5  C5  N4B d   1       0.004  -1.509   1.848  0.00  0.00     0.002 A 
ATOM      6  C6  N4B d   1      -0.307  -0.465   2.697  0.00  0.00     0.002 A 
ENDROOT
BRANCH   1   7
ATOM      7  C1' N4B d   1      -1.873   1.204   3.623  0.00  0.00     0.057 C 
BRANCH   7   8
ATOM      8  C2' N4B d   1      -2.557   0.741   4.906  0.00  0.00     0.009 C 
BRANCH   8   9
ATOM      9  C3' N4B d   1      -3.246   1.886   5.628  0.00  0.00     0.004 C 
ATOM     10  C4' N4B d   1      -4.664   1.569   6.000  0.00  0.00     0.003 C 
ENDBRANCH   8   9
ENDBRANCH   7   8
ENDBRANCH   1   7
TORSDOF 3
ENDMDL
