MODEL 1
REMARK minimizedAffinity 12.2064342
REMARK minimizedRMSD -1
REMARK  3 active torsions:
REMARK  status: ('A' for Active; 'I' for Inactive)
REMARK    1  A    between atoms: C3'_2  and  C2'_3 
REMARK    2  A    between atoms: C2'_3  and  C1'_4 
REMARK    3  A    between atoms: C1'_4  and  C1_5 
ROOT
ATOM      1  C1  N4B d   1      -1.906  -0.845   2.679  0.00  0.00    -0.075 A 
ATOM      2  C2  N4B d   1      -2.752   0.192   2.228  0.00  0.00     0.002 A 
ATOM      3  C3  N4B d   1      -3.032   1.255   3.050  0.00  0.00     0.002 A 
ATOM      4  C4  N4B d   1      -2.496   1.294   4.329  0.00  0.00    -0.004 A 
ATOM      5  C5  N4B d   1      -1.660   0.301   4.748  0.00  0.00     0.002 A 
ATOM      6  C6  N4B d   1      -1.366  -0.772   3.931  0.00  0.00     0.002 A 
ENDROOT
BRANCH   1   7
ATOM      7  C1' N4B d   1      -1.639  -2.071   1.848  0.00  0.00     0.057 C 
BRANCH   7   8
ATOM      8  C2' N4B d   1      -2.963  -2.759   1.531  0.00  0.00     0.009 C 
BRANCH   8   9
ATOM      9  C3' N4B d   1      -2.763  -4.197   1.084  0.00  0.00     0.004 C 
ATOM     10  C4' N4B d   1      -3.936  -5.074   1.406  0.00  0.00     0.003 C 
ENDBRANCH   8   9
ENDBRANCH   7   8
ENDBRANCH   1   7
TORSDOF 3
ENDMDL
