MODEL 1
REMARK minimizedAffinity 8.97129631
REMARK minimizedRMSD -1
REMARK  3 active torsions:
REMARK  status: ('A' for Active; 'I' for Inactive)
REMARK    1  A    between atoms: C3'_2  and  C2'_3 
REMARK    2  A    between atoms: C2'_3  and  C1'_4 
REMARK    3  A    between atoms: C1'_4  and  C1_5 
ROOT
ATOM      1  C1  N4B d   1      -3.871   6.000  -3.577  0.00  0.00    -0.075 A 
ATOM      2  C2  N4B d   1      -2.460   5.941  -3.616  0.00  0.00     0.002 A 
ATOM      3  C3  N4B d   1      -1.809   5.874  -4.823  0.00  0.00     0.002 A 
ATOM      4  C4  N4B d   1      -2.545   5.845  -5.999  0.00  0.00    -0.004 A 
ATOM      5  C5  N4B d   1      -3.906   5.927  -5.953  0.00  0.00     0.002 A 
ATOM      6  C6  N4B d   1      -4.573   6.000  -4.747  0.00  0.00     0.002 A 
ENDROOT
BRANCH   1   7
ATOM      7  C1' N4B d   1      -4.630   5.988  -2.278  0.00  0.00     0.057 C 
BRANCH   7   8
ATOM      8  C2' N4B d   1      -4.058   4.901  -1.373  0.00  0.00     0.009 C 
BRANCH   8   9
ATOM      9  C3' N4B d   1      -5.084   3.826  -1.059  0.00  0.00     0.004 C 
ATOM     10  C4' N4B d   1      -4.537   2.742  -0.178  0.00  0.00     0.003 C 
ENDBRANCH   8   9
ENDBRANCH   7   8
ENDBRANCH   1   7
TORSDOF 3
ENDMDL
