MODEL 1
REMARK minimizedAffinity 12.1833048
REMARK minimizedRMSD -1
REMARK  3 active torsions:
REMARK  status: ('A' for Active; 'I' for Inactive)
REMARK    1  A    between atoms: C3'_2  and  C2'_3 
REMARK    2  A    between atoms: C2'_3  and  C1'_4 
REMARK    3  A    between atoms: C1'_4  and  C1_5 
ROOT
ATOM      1  C1  N4B d   1      -3.763   0.369   1.334  0.00  0.00    -0.075 A 
ATOM      2  C2  N4B d   1      -3.206  -0.835   0.849  0.00  0.00     0.002 A 
ATOM      3  C3  N4B d   1      -1.918  -1.178   1.181  0.00  0.00     0.002 A 
ATOM      4  C4  N4B d   1      -1.165  -0.327   1.976  0.00  0.00    -0.004 A 
ATOM      5  C5  N4B d   1      -1.719   0.821   2.461  0.00  0.00     0.002 A 
ATOM      6  C6  N4B d   1      -3.013   1.177   2.139  0.00  0.00     0.002 A 
ENDROOT
BRANCH   1   7
ATOM      7  C1' N4B d   1      -5.137   0.828   0.928  0.00  0.00     0.057 C 
BRANCH   7   8
ATOM      8  C2' N4B d   1      -5.068   1.443  -0.466  0.00  0.00     0.009 C 
BRANCH   8   9
ATOM      9  C3' N4B d   1      -5.977   0.726  -1.450  0.00  0.00     0.004 C 
ATOM     10  C4' N4B d   1      -5.243   0.217  -2.654  0.00  0.00     0.003 C 
ENDBRANCH   8   9
ENDBRANCH   7   8
ENDBRANCH   1   7
TORSDOF 3
ENDMDL
