MODEL 1
REMARK minimizedAffinity 4.52657747
REMARK minimizedRMSD -1
REMARK  3 active torsions:
REMARK  status: ('A' for Active; 'I' for Inactive)
REMARK    1  A    between atoms: C3'_2  and  C2'_3 
REMARK    2  A    between atoms: C2'_3  and  C1'_4 
REMARK    3  A    between atoms: C1'_4  and  C1_5 
ROOT
ATOM      1  C1  N4B d   1      -4.869  -3.519   3.636  0.00  0.00    -0.075 A 
ATOM      2  C2  N4B d   1      -5.149  -4.461   2.622  0.00  0.00     0.002 A 
ATOM      3  C3  N4B d   1      -5.719  -5.668   2.944  0.00  0.00     0.002 A 
ATOM      4  C4  N4B d   1      -6.000  -5.962   4.270  0.00  0.00    -0.004 A 
ATOM      5  C5  N4B d   1      -5.750  -5.037   5.241  0.00  0.00     0.002 A 
ATOM      6  C6  N4B d   1      -5.181  -3.818   4.931  0.00  0.00     0.002 A 
ENDROOT
BRANCH   1   7
ATOM      7  C1' N4B d   1      -4.168  -2.221   3.343  0.00  0.00     0.057 C 
BRANCH   7   8
ATOM      8  C2' N4B d   1      -3.119  -2.452   2.260  0.00  0.00     0.009 C 
BRANCH   8   9
ATOM      9  C3' N4B d   1      -2.244  -1.229   2.046  0.00  0.00     0.004 C 
ATOM     10  C4' N4B d   1      -1.067  -1.505   1.158  0.00  0.00     0.003 C 
ENDBRANCH   8   9
ENDBRANCH   7   8
ENDBRANCH   1   7
TORSDOF 3
ENDMDL
