MODEL 1
REMARK minimizedAffinity 10.5164242
REMARK minimizedRMSD -1
REMARK  3 active torsions:
REMARK  status: ('A' for Active; 'I' for Inactive)
REMARK    1  A    between atoms: C3'_2  and  C2'_3 
REMARK    2  A    between atoms: C2'_3  and  C1'_4 
REMARK    3  A    between atoms: C1'_4  and  C1_5 
ROOT
ATOM      1  C1  N4B d   1      -3.844   0.419   1.961  0.00  0.00    -0.075 A 
ATOM      2  C2  N4B d   1      -3.159   0.873   3.110  0.00  0.00     0.002 A 
ATOM      3  C3  N4B d   1      -1.969   0.292   3.474  0.00  0.00     0.002 A 
ATOM      4  C4  N4B d   1      -1.456  -0.751   2.718  0.00  0.00    -0.004 A 
ATOM      5  C5  N4B d   1      -2.110  -1.166   1.596  0.00  0.00     0.002 A 
ATOM      6  C6  N4B d   1      -3.306  -0.589   1.216  0.00  0.00     0.002 A 
ENDROOT
BRANCH   1   7
ATOM      7  C1' N4B d   1      -5.191   0.965   1.573  0.00  0.00     0.057 C 
BRANCH   7   8
ATOM      8  C2' N4B d   1      -5.744   0.150   0.408  0.00  0.00     0.009 C 
BRANCH   8   9
ATOM      9  C3' N4B d   1      -5.980   1.007  -0.824  0.00  0.00     0.004 C 
ATOM     10  C4' N4B d   1      -5.975   0.212  -2.095  0.00  0.00     0.003 C 
ENDBRANCH   8   9
ENDBRANCH   7   8
ENDBRANCH   1   7
TORSDOF 3
ENDMDL
