MODEL 1
REMARK minimizedAffinity 15.6484756
REMARK minimizedRMSD -1
REMARK  3 active torsions:
REMARK  status: ('A' for Active; 'I' for Inactive)
REMARK    1  A    between atoms: C3'_2  and  C2'_3 
REMARK    2  A    between atoms: C2'_3  and  C1'_4 
REMARK    3  A    between atoms: C1'_4  and  C1_5 
ROOT
ATOM      1  C1  N4B d   1       3.283   3.756  -3.461  0.00  0.00    -0.075 A 
ATOM      2  C2  N4B d   1       3.414   2.997  -4.645  0.00  0.00     0.002 A 
ATOM      3  C3  N4B d   1       4.599   3.005  -5.338  0.00  0.00     0.002 A 
ATOM      4  C4  N4B d   1       5.657   3.777  -4.880  0.00  0.00    -0.004 A 
ATOM      5  C5  N4B d   1       5.531   4.487  -3.722  0.00  0.00     0.002 A 
ATOM      6  C6  N4B d   1       4.347   4.484  -3.012  0.00  0.00     0.002 A 
ENDROOT
BRANCH   1   7
ATOM      7  C1' N4B d   1       1.980   3.846  -2.715  0.00  0.00     0.057 C 
BRANCH   7   8
ATOM      8  C2' N4B d   1       1.340   5.204  -2.987  0.00  0.00     0.009 C 
BRANCH   8   9
ATOM      9  C3' N4B d   1       1.125   5.997  -1.709  0.00  0.00     0.004 C 
ATOM     10  C4' N4B d   1      -0.297   5.960  -1.235  0.00  0.00     0.003 C 
ENDBRANCH   8   9
ENDBRANCH   7   8
ENDBRANCH   1   7
TORSDOF 3
ENDMDL
