MODEL 1
REMARK minimizedAffinity 9.72971821
REMARK minimizedRMSD -1
REMARK  0 active torsions:
REMARK  status: ('A' for Active; 'I' for Inactive)
ROOT
ATOM      1  C1  BNZ d   1       2.023  -1.253  -1.845  0.00  0.00     0.000 A 
ATOM      2  C2  BNZ d   1       1.579  -2.535  -2.024  0.00  0.00     0.000 A 
ATOM      3  C3  BNZ d   1       0.773  -2.856  -3.080  0.00  0.00     0.000 A 
ATOM      4  C4  BNZ d   1       0.380  -1.887  -3.932  0.00  0.00     0.000 A 
ATOM      5  C5  BNZ d   1       0.812  -0.587  -3.760  0.00  0.00     0.000 A 
ATOM      6  C6  BNZ d   1       1.655  -0.276  -2.718  0.00  0.00     0.000 A 
ENDROOT
TORSDOF 0
ENDMDL
