MODEL 1
REMARK minimizedAffinity 2.57807398
REMARK minimizedRMSD -1
REMARK  0 active torsions:
REMARK  status: ('A' for Active; 'I' for Inactive)
ROOT
ATOM      1  C1  BNZ d   1       5.998  -5.181   5.994  0.00  0.00     0.000 A 
ATOM      2  C2  BNZ d   1       4.884  -5.966   5.864  0.00  0.00     0.000 A 
ATOM      3  C3  BNZ d   1       3.763  -5.492   5.241  0.00  0.00     0.000 A 
ATOM      4  C4  BNZ d   1       3.744  -4.223   4.785  0.00  0.00     0.000 A 
ATOM      5  C5  BNZ d   1       4.857  -3.416   4.918  0.00  0.00     0.000 A 
ATOM      6  C6  BNZ d   1       5.996  -3.909   5.511  0.00  0.00     0.000 A 
ENDROOT
TORSDOF 0
ENDMDL
