MODEL 1
REMARK minimizedAffinity 7.40269518
REMARK minimizedRMSD -1
REMARK  0 active torsions:
REMARK  status: ('A' for Active; 'I' for Inactive)
ROOT
ATOM      1  C1  BNZ d   1      -2.545   4.544   4.114  0.00  0.00     0.000 A 
ATOM      2  C2  BNZ d   1      -1.887   5.286   5.059  0.00  0.00     0.000 A 
ATOM      3  C3  BNZ d   1      -2.581   5.998   5.997  0.00  0.00     0.000 A 
ATOM      4  C4  BNZ d   1      -3.929   6.000   5.964  0.00  0.00     0.000 A 
ATOM      5  C5  BNZ d   1      -4.607   5.264   5.012  0.00  0.00     0.000 A 
ATOM      6  C6  BNZ d   1      -3.905   4.517   4.094  0.00  0.00     0.000 A 
ENDROOT
TORSDOF 0
ENDMDL
