MODEL 1
REMARK minimizedAffinity 13.3741951
REMARK minimizedRMSD -1
REMARK  0 active torsions:
REMARK  status: ('A' for Active; 'I' for Inactive)
ROOT
ATOM      1  C1  BNZ d   1      -3.627   2.212   3.131  0.00  0.00     0.000 A 
ATOM      2  C2  BNZ d   1      -4.499   1.163   3.018  0.00  0.00     0.000 A 
ATOM      3  C3  BNZ d   1      -4.048  -0.092   2.715  0.00  0.00     0.000 A 
ATOM      4  C4  BNZ d   1      -2.734  -0.287   2.486  0.00  0.00     0.000 A 
ATOM      5  C5  BNZ d   1      -1.843   0.763   2.587  0.00  0.00     0.000 A 
ATOM      6  C6  BNZ d   1      -2.295   2.017   2.931  0.00  0.00     0.000 A 
ENDROOT
TORSDOF 0
ENDMDL
