MODEL 1
REMARK minimizedAffinity -0.0422533676
REMARK minimizedRMSD -1
REMARK  0 active torsions:
REMARK  status: ('A' for Active; 'I' for Inactive)
ROOT
ATOM      1  C1  BNZ d   1       2.603   1.434  -1.948  0.00  0.00     0.000 A 
ATOM      2  C2  BNZ d   1       1.368   1.741  -2.454  0.00  0.00     0.000 A 
ATOM      3  C3  BNZ d   1       0.344   0.838  -2.399  0.00  0.00     0.000 A 
ATOM      4  C4  BNZ d   1       0.566  -0.385  -1.874  0.00  0.00     0.000 A 
ATOM      5  C5  BNZ d   1       1.808  -0.713  -1.368  0.00  0.00     0.000 A 
ATOM      6  C6  BNZ d   1       2.826   0.213  -1.391  0.00  0.00     0.000 A 
ENDROOT
TORSDOF 0
ENDMDL
