MODEL 1
REMARK minimizedAffinity -2.75521588
REMARK minimizedRMSD -1
REMARK  0 active torsions:
REMARK  status: ('A' for Active; 'I' for Inactive)
ROOT
ATOM      1  C1  BNZ d   1       1.095   0.850  -1.943  0.00  0.00     0.000 A 
ATOM      2  C2  BNZ d   1      -0.023   1.215  -1.241  0.00  0.00     0.000 A 
ATOM      3  C3  BNZ d   1       0.049   2.151  -0.248  0.00  0.00     0.000 A 
ATOM      4  C4  BNZ d   1       1.244   2.691   0.070  0.00  0.00     0.000 A 
ATOM      5  C5  BNZ d   1       2.382   2.326  -0.622  0.00  0.00     0.000 A 
ATOM      6  C6  BNZ d   1       2.299   1.413  -1.648  0.00  0.00     0.000 A 
ENDROOT
TORSDOF 0
ENDMDL
