MODEL 1
REMARK minimizedAffinity 7.42105579
REMARK minimizedRMSD -1
REMARK  0 active torsions:
REMARK  status: ('A' for Active; 'I' for Inactive)
ROOT
ATOM      1  C1  BNZ d   1      -3.723   0.021   3.395  0.00  0.00     0.000 A 
ATOM      2  C2  BNZ d   1      -2.577   0.768   3.455  0.00  0.00     0.000 A 
ATOM      3  C3  BNZ d   1      -2.594   2.101   3.150  0.00  0.00     0.000 A 
ATOM      4  C4  BNZ d   1      -3.746   2.674   2.747  0.00  0.00     0.000 A 
ATOM      5  C5  BNZ d   1      -4.908   1.932   2.672  0.00  0.00     0.000 A 
ATOM      6  C6  BNZ d   1      -4.896   0.600   3.018  0.00  0.00     0.000 A 
ENDROOT
TORSDOF 0
ENDMDL
