MODEL 1
REMARK minimizedAffinity 6.57886267
REMARK minimizedRMSD -1
REMARK  0 active torsions:
REMARK  status: ('A' for Active; 'I' for Inactive)
ROOT
ATOM      1  C1  BNZ d   1      -2.251   4.983   5.988  0.00  0.00     0.000 A 
ATOM      2  C2  BNZ d   1      -2.242   4.044   4.991  0.00  0.00     0.000 A 
ATOM      3  C3  BNZ d   1      -3.158   4.090   3.977  0.00  0.00     0.000 A 
ATOM      4  C4  BNZ d   1      -4.104   5.051   3.982  0.00  0.00     0.000 A 
ATOM      5  C5  BNZ d   1      -4.132   6.000   4.984  0.00  0.00     0.000 A 
ATOM      6  C6  BNZ d   1      -3.185   5.973   5.982  0.00  0.00     0.000 A 
ENDROOT
TORSDOF 0
ENDMDL
