MODEL 1
REMARK minimizedAffinity 9.80900002
REMARK minimizedRMSD -1
REMARK  0 active torsions:
REMARK  status: ('A' for Active; 'I' for Inactive)
ROOT
ATOM      1  C1  BNZ d   1      -0.069   2.018  -2.817  0.00  0.00     0.000 A 
ATOM      2  C2  BNZ d   1       1.212   1.602  -3.065  0.00  0.00     0.000 A 
ATOM      3  C3  BNZ d   1       1.770   0.586  -2.341  0.00  0.00     0.000 A 
ATOM      4  C4  BNZ d   1       1.063   0.016  -1.344  0.00  0.00     0.000 A 
ATOM      5  C5  BNZ d   1      -0.226   0.431  -1.075  0.00  0.00     0.000 A 
ATOM      6  C6  BNZ d   1      -0.799   1.428  -1.832  0.00  0.00     0.000 A 
ENDROOT
TORSDOF 0
ENDMDL
