MODEL 1
REMARK minimizedAffinity 1.88283765
REMARK minimizedRMSD -1
REMARK  0 active torsions:
REMARK  status: ('A' for Active; 'I' for Inactive)
ROOT
ATOM      1  C1  BNZ d   1       4.170   4.259   2.499  0.00  0.00     0.000 A 
ATOM      2  C2  BNZ d   1       5.098   4.879   3.293  0.00  0.00     0.000 A 
ATOM      3  C3  BNZ d   1       5.999   5.758   2.761  0.00  0.00     0.000 A 
ATOM      4  C4  BNZ d   1       5.998   5.985   1.431  0.00  0.00     0.000 A 
ATOM      5  C5  BNZ d   1       5.075   5.360   0.616  0.00  0.00     0.000 A 
ATOM      6  C6  BNZ d   1       4.144   4.506   1.162  0.00  0.00     0.000 A 
ENDROOT
TORSDOF 0
ENDMDL
