MODEL 1
REMARK minimizedAffinity -0.54996419
REMARK minimizedRMSD -1
REMARK  0 active torsions:
REMARK  status: ('A' for Active; 'I' for Inactive)
ROOT
ATOM      1  C1  BNZ d   1       2.259   1.719  -3.790  0.00  0.00     0.000 A 
ATOM      2  C2  BNZ d   1       2.921   0.673  -3.205  0.00  0.00     0.000 A 
ATOM      3  C3  BNZ d   1       2.347  -0.036  -2.186  0.00  0.00     0.000 A 
ATOM      4  C4  BNZ d   1       1.132   0.327  -1.728  0.00  0.00     0.000 A 
ATOM      5  C5  BNZ d   1       0.456   1.385  -2.302  0.00  0.00     0.000 A 
ATOM      6  C6  BNZ d   1       1.020   2.072  -3.353  0.00  0.00     0.000 A 
ENDROOT
TORSDOF 0
ENDMDL
