MODEL 1
REMARK minimizedAffinity 3.77586555
REMARK minimizedRMSD -1
REMARK  0 active torsions:
REMARK  status: ('A' for Active; 'I' for Inactive)
ROOT
ATOM      1  C1  BNZ d   1       1.648   2.178  -3.881  0.00  0.00     0.000 A 
ATOM      2  C2  BNZ d   1       0.828   1.150  -3.498  0.00  0.00     0.000 A 
ATOM      3  C3  BNZ d   1       0.409   1.035  -2.202  0.00  0.00     0.000 A 
ATOM      4  C4  BNZ d   1       0.843   1.922  -1.283  0.00  0.00     0.000 A 
ATOM      5  C5  BNZ d   1       1.678   2.957  -1.652  0.00  0.00     0.000 A 
ATOM      6  C6  BNZ d   1       2.066   3.094  -2.965  0.00  0.00     0.000 A 
ENDROOT
TORSDOF 0
ENDMDL
