MODEL 1
REMARK minimizedAffinity 3.05096173
REMARK minimizedRMSD -1
REMARK  0 active torsions:
REMARK  status: ('A' for Active; 'I' for Inactive)
ROOT
ATOM      1  C1  BNZ d   1      -2.681  -0.658   4.412  0.00  0.00     0.000 A 
ATOM      2  C2  BNZ d   1      -3.393  -1.545   3.650  0.00  0.00     0.000 A 
ATOM      3  C3  BNZ d   1      -4.459  -1.128   2.903  0.00  0.00     0.000 A 
ATOM      4  C4  BNZ d   1      -4.837   0.166   2.951  0.00  0.00     0.000 A 
ATOM      5  C5  BNZ d   1      -4.135   1.071   3.722  0.00  0.00     0.000 A 
ATOM      6  C6  BNZ d   1      -3.038   0.655   4.442  0.00  0.00     0.000 A 
ENDROOT
TORSDOF 0
ENDMDL
