MODEL 1
REMARK minimizedAffinity 0.113252729
REMARK minimizedRMSD -1
REMARK  0 active torsions:
REMARK  status: ('A' for Active; 'I' for Inactive)
ROOT
ATOM      1  C1  BNZ d   1       0.871   0.558  -2.954  0.00  0.00     0.000 A 
ATOM      2  C2  BNZ d   1       0.157   0.388  -1.799  0.00  0.00     0.000 A 
ATOM      3  C3  BNZ d   1       0.063   1.395  -0.879  0.00  0.00     0.000 A 
ATOM      4  C4  BNZ d   1       0.715   2.555  -1.097  0.00  0.00     0.000 A 
ATOM      5  C5  BNZ d   1       1.448   2.739  -2.253  0.00  0.00     0.000 A 
ATOM      6  C6  BNZ d   1       1.508   1.737  -3.194  0.00  0.00     0.000 A 
ENDROOT
TORSDOF 0
ENDMDL
