MODEL 1
REMARK minimizedAffinity 2.28442812
REMARK minimizedRMSD -1
REMARK  0 active torsions:
REMARK  status: ('A' for Active; 'I' for Inactive)
ROOT
ATOM      1  C1  BNZ d   1       3.269   4.764  -2.031  0.00  0.00     0.000 A 
ATOM      2  C2  BNZ d   1       4.485   4.959  -1.431  0.00  0.00     0.000 A 
ATOM      3  C3  BNZ d   1       5.613   4.369  -1.929  0.00  0.00     0.000 A 
ATOM      4  C4  BNZ d   1       5.519   3.556  -3.000  0.00  0.00     0.000 A 
ATOM      5  C5  BNZ d   1       4.298   3.342  -3.610  0.00  0.00     0.000 A 
ATOM      6  C6  BNZ d   1       3.171   3.968  -3.130  0.00  0.00     0.000 A 
ENDROOT
TORSDOF 0
ENDMDL
