MODEL 1
REMARK minimizedAffinity 1.65522707
REMARK minimizedRMSD -1
REMARK  0 active torsions:
REMARK  status: ('A' for Active; 'I' for Inactive)
ROOT
ATOM      1  C1  BNZ d   1       0.715   1.520  -2.670  0.00  0.00     0.000 A 
ATOM      2  C2  BNZ d   1       1.567   1.971  -3.643  0.00  0.00     0.000 A 
ATOM      3  C3  BNZ d   1       2.796   1.400  -3.817  0.00  0.00     0.000 A 
ATOM      4  C4  BNZ d   1       3.188   0.406  -2.994  0.00  0.00     0.000 A 
ATOM      5  C5  BNZ d   1       2.344  -0.054  -2.002  0.00  0.00     0.000 A 
ATOM      6  C6  BNZ d   1       1.092   0.498  -1.855  0.00  0.00     0.000 A 
ENDROOT
TORSDOF 0
ENDMDL
