MODEL 1
REMARK minimizedAffinity 7.6863265
REMARK minimizedRMSD -1
REMARK  0 active torsions:
REMARK  status: ('A' for Active; 'I' for Inactive)
ROOT
ATOM      1  C1  BNZ d   1      -0.239  -0.076  -2.198  0.00  0.00     0.000 A 
ATOM      2  C2  BNZ d   1       0.078   1.247  -2.045  0.00  0.00     0.000 A 
ATOM      3  C3  BNZ d   1       1.075   1.818  -2.786  0.00  0.00     0.000 A 
ATOM      4  C4  BNZ d   1       1.778   1.057  -3.649  0.00  0.00     0.000 A 
ATOM      5  C5  BNZ d   1       1.477  -0.280  -3.808  0.00  0.00     0.000 A 
ATOM      6  C6  BNZ d   1       0.447  -0.843  -3.089  0.00  0.00     0.000 A 
ENDROOT
TORSDOF 0
ENDMDL
