MODEL 1
REMARK minimizedAffinity 0.897778392
REMARK minimizedRMSD -1
REMARK  1 active torsions:
REMARK  status: ('A' for Active; 'I' for Inactive)
REMARK    1  A    between atoms: C3_4  and  O_7 
ROOT
ATOM      1  C   UNL d   1      -1.462  -3.256   2.569  0.00  0.00    -0.033 A 
ATOM      2  C1  UNL d   1      -1.007  -4.560   2.778  0.00  0.00     0.039 A 
ATOM      3  C2  UNL d   1      -0.572  -5.330   1.698  0.00  0.00    -0.080 A 
ATOM      4  C3  UNL d   1      -0.596  -4.786   0.417  0.00  0.00     0.150 A 
ATOM      5  C4  UNL d   1      -1.044  -3.487   0.202  0.00  0.00    -0.007 A 
ATOM      6  C5  UNL d   1      -1.479  -2.719   1.281  0.00  0.00     0.039 A 
ENDROOT
BRANCH   4   7
ATOM      7  O   UNL d   1      -0.186  -5.502  -0.669  0.00  0.00    -0.526 OA
ATOM      8  H5  UNL d   1       0.070  -6.391  -0.373  0.00  0.00     0.418 HD
ENDBRANCH   4   7
TORSDOF 1
ENDMDL
