MODEL 1
REMARK minimizedAffinity 11.8199005
REMARK minimizedRMSD -1
REMARK  1 active torsions:
REMARK  status: ('A' for Active; 'I' for Inactive)
REMARK    1  A    between atoms: C3_4  and  O_7 
ROOT
ATOM      1  C   UNL d   1      -0.891  -4.028   0.482  0.00  0.00    -0.033 A 
ATOM      2  C1  UNL d   1      -0.380  -5.320   0.615  0.00  0.00     0.039 A 
ATOM      3  C2  UNL d   1      -0.504  -6.000   1.828  0.00  0.00    -0.080 A 
ATOM      4  C3  UNL d   1      -1.142  -5.378   2.898  0.00  0.00     0.150 A 
ATOM      5  C4  UNL d   1      -1.657  -4.092   2.771  0.00  0.00    -0.007 A 
ATOM      6  C5  UNL d   1      -1.532  -3.414   1.559  0.00  0.00     0.039 A 
ENDROOT
BRANCH   4   7
ATOM      7  O   UNL d   1      -1.283  -6.000   4.103  0.00  0.00    -0.526 OA
ATOM      8  H5  UNL d   1      -0.854  -6.870   4.052  0.00  0.00     0.418 HD
ENDBRANCH   4   7
TORSDOF 1
ENDMDL
