MODEL 1
REMARK minimizedAffinity 9.41507912
REMARK minimizedRMSD -1
REMARK  1 active torsions:
REMARK  status: ('A' for Active; 'I' for Inactive)
REMARK    1  A    between atoms: C3_4  and  O_7 
ROOT
ATOM      1  C   UNL d   1      -2.386  -1.111   0.126  0.00  0.00    -0.033 A 
ATOM      2  C1  UNL d   1      -2.705  -1.855   1.263  0.00  0.00     0.039 A 
ATOM      3  C2  UNL d   1      -2.021  -3.040   1.538  0.00  0.00    -0.080 A 
ATOM      4  C3  UNL d   1      -1.021  -3.470   0.670  0.00  0.00     0.150 A 
ATOM      5  C4  UNL d   1      -0.696  -2.731  -0.463  0.00  0.00    -0.007 A 
ATOM      6  C5  UNL d   1      -1.381  -1.548  -0.737  0.00  0.00     0.039 A 
ENDROOT
BRANCH   4   7
ATOM      7  O   UNL d   1      -0.329  -4.623   0.894  0.00  0.00    -0.526 OA
ATOM      8  H5  UNL d   1      -0.681  -5.042   1.697  0.00  0.00     0.418 HD
ENDBRANCH   4   7
TORSDOF 1
ENDMDL
