MODEL 1
REMARK minimizedAffinity 3.8214469
REMARK minimizedRMSD -1
REMARK  1 active torsions:
REMARK  status: ('A' for Active; 'I' for Inactive)
REMARK    1  A    between atoms: C3_4  and  O_7 
ROOT
ATOM      1  C   UNL d   1      -4.863   5.999   0.757  0.00  0.00    -0.033 A 
ATOM      2  C1  UNL d   1      -3.723   5.203   0.886  0.00  0.00     0.039 A 
ATOM      3  C2  UNL d   1      -3.720   3.900   0.385  0.00  0.00    -0.080 A 
ATOM      4  C3  UNL d   1      -4.860   3.406  -0.242  0.00  0.00     0.150 A 
ATOM      5  C4  UNL d   1      -5.998   4.195  -0.377  0.00  0.00    -0.007 A 
ATOM      6  C5  UNL d   1      -6.000   5.495   0.125  0.00  0.00     0.039 A 
ENDROOT
BRANCH   4   7
ATOM      7  O   UNL d   1      -4.906   2.138  -0.742  0.00  0.00    -0.526 OA
ATOM      8  H5  UNL d   1      -4.059   1.701  -0.551  0.00  0.00     0.418 HD
ENDBRANCH   4   7
TORSDOF 1
ENDMDL
