MODEL 1
REMARK minimizedAffinity 6.91040516
REMARK minimizedRMSD -1
REMARK  1 active torsions:
REMARK  status: ('A' for Active; 'I' for Inactive)
REMARK    1  A    between atoms: C3_4  and  O_7 
ROOT
ATOM      1  C   UNL d   1      -2.113  -1.776   0.548  0.00  0.00    -0.033 A 
ATOM      2  C1  UNL d   1      -2.324  -2.843   1.424  0.00  0.00     0.039 A 
ATOM      3  C2  UNL d   1      -1.533  -3.990   1.333  0.00  0.00    -0.080 A 
ATOM      4  C3  UNL d   1      -0.536  -4.057   0.364  0.00  0.00     0.150 A 
ATOM      5  C4  UNL d   1      -0.318  -2.996  -0.509  0.00  0.00    -0.007 A 
ATOM      6  C5  UNL d   1      -1.109  -1.852  -0.418  0.00  0.00     0.039 A 
ENDROOT
BRANCH   4   7
ATOM      7  O   UNL d   1       0.258  -5.157   0.234  0.00  0.00    -0.526 OA
ATOM      8  H5  UNL d   1      -0.025  -5.820   0.885  0.00  0.00     0.418 HD
ENDBRANCH   4   7
TORSDOF 1
ENDMDL
