MODEL 1
REMARK minimizedAffinity 4.70567513
REMARK minimizedRMSD -1
REMARK  1 active torsions:
REMARK  status: ('A' for Active; 'I' for Inactive)
REMARK    1  A    between atoms: C3_4  and  O_7 
ROOT
ATOM      1  C   UNL d   1      -1.105  -3.793   1.348  0.00  0.00    -0.033 A 
ATOM      2  C1  UNL d   1      -1.479  -2.452   1.462  0.00  0.00     0.039 A 
ATOM      3  C2  UNL d   1      -1.852  -1.731   0.326  0.00  0.00    -0.080 A 
ATOM      4  C3  UNL d   1      -1.847  -2.361  -0.915  0.00  0.00     0.150 A 
ATOM      5  C4  UNL d   1      -1.479  -3.697  -1.035  0.00  0.00    -0.007 A 
ATOM      6  C5  UNL d   1      -1.106  -4.415   0.100  0.00  0.00     0.039 A 
ENDROOT
BRANCH   4   7
ATOM      7  O   UNL d   1      -2.199  -1.696  -2.052  0.00  0.00    -0.526 OA
ATOM      8  H5  UNL d   1      -2.401  -0.775  -1.820  0.00  0.00     0.418 HD
ENDBRANCH   4   7
TORSDOF 1
ENDMDL
