MODEL 1
REMARK minimizedAffinity 5.849051
REMARK minimizedRMSD -1
REMARK  1 active torsions:
REMARK  status: ('A' for Active; 'I' for Inactive)
REMARK    1  A    between atoms: C3_4  and  O_7 
ROOT
ATOM      1  C   UNL d   1      -6.000   1.639   6.000  0.00  0.00    -0.033 A 
ATOM      2  C1  UNL d   1      -5.968   0.255   5.814  0.00  0.00     0.039 A 
ATOM      3  C2  UNL d   1      -4.748  -0.397   5.625  0.00  0.00    -0.080 A 
ATOM      4  C3  UNL d   1      -3.570   0.343   5.624  0.00  0.00     0.150 A 
ATOM      5  C4  UNL d   1      -3.594   1.721   5.812  0.00  0.00    -0.007 A 
ATOM      6  C5  UNL d   1      -4.813   2.372   6.000  0.00  0.00     0.039 A 
ENDROOT
BRANCH   4   7
ATOM      7  O   UNL d   1      -2.356  -0.249   5.438  0.00  0.00    -0.526 OA
ATOM      8  H5  UNL d   1      -2.497  -1.199   5.292  0.00  0.00     0.418 HD
ENDBRANCH   4   7
TORSDOF 1
ENDMDL
