MODEL 1
REMARK minimizedAffinity 7.21349573
REMARK minimizedRMSD -1
REMARK  1 active torsions:
REMARK  status: ('A' for Active; 'I' for Inactive)
REMARK    1  A    between atoms: C3_4  and  O_7 
ROOT
ATOM      1  C   UNL d   1      -0.911  -1.758  -2.592  0.00  0.00    -0.033 A 
ATOM      2  C1  UNL d   1      -0.756  -2.017  -1.229  0.00  0.00     0.039 A 
ATOM      3  C2  UNL d   1      -0.564  -3.326  -0.782  0.00  0.00    -0.080 A 
ATOM      4  C3  UNL d   1      -0.527  -4.365  -1.708  0.00  0.00     0.150 A 
ATOM      5  C4  UNL d   1      -0.676  -4.113  -3.068  0.00  0.00    -0.007 A 
ATOM      6  C5  UNL d   1      -0.869  -2.806  -3.512  0.00  0.00     0.039 A 
ENDROOT
BRANCH   4   7
ATOM      7  O   UNL d   1      -0.346  -5.659  -1.320  0.00  0.00    -0.526 OA
ATOM      8  H5  UNL d   1      -0.287  -5.684  -0.350  0.00  0.00     0.418 HD
ENDBRANCH   4   7
TORSDOF 1
ENDMDL
