MODEL 1
REMARK minimizedAffinity 12.6308317
REMARK minimizedRMSD -1
REMARK  1 active torsions:
REMARK  status: ('A' for Active; 'I' for Inactive)
REMARK    1  A    between atoms: C3_4  and  O_7 
ROOT
ATOM      1  C   UNL d   1      -2.618  -3.375   5.055  0.00  0.00    -0.033 A 
ATOM      2  C1  UNL d   1      -3.879  -3.378   5.653  0.00  0.00     0.039 A 
ATOM      3  C2  UNL d   1      -4.504  -2.172   5.977  0.00  0.00    -0.080 A 
ATOM      4  C3  UNL d   1      -3.858  -0.971   5.697  0.00  0.00     0.150 A 
ATOM      5  C4  UNL d   1      -2.603  -0.960   5.097  0.00  0.00    -0.007 A 
ATOM      6  C5  UNL d   1      -1.980  -2.166   4.775  0.00  0.00     0.039 A 
ENDROOT
BRANCH   4   7
ATOM      7  O   UNL d   1      -4.425   0.231   5.999  0.00  0.00    -0.526 OA
ATOM      8  H5  UNL d   1      -5.278   0.067   6.434  0.00  0.00     0.418 HD
ENDBRANCH   4   7
TORSDOF 1
ENDMDL
