MODEL 1
REMARK minimizedAffinity 13.3735857
REMARK minimizedRMSD -1
REMARK  1 active torsions:
REMARK  status: ('A' for Active; 'I' for Inactive)
REMARK    1  A    between atoms: C3_4  and  O_7 
ROOT
ATOM      1  C   UNL d   1      -2.707  -2.613   4.876  0.00  0.00    -0.033 A 
ATOM      2  C1  UNL d   1      -2.295  -1.336   4.491  0.00  0.00     0.039 A 
ATOM      3  C2  UNL d   1      -1.033  -0.866   4.860  0.00  0.00    -0.080 A 
ATOM      4  C3  UNL d   1      -0.193  -1.683   5.611  0.00  0.00     0.150 A 
ATOM      5  C4  UNL d   1      -0.595  -2.959   5.995  0.00  0.00    -0.007 A 
ATOM      6  C5  UNL d   1      -1.856  -3.425   5.626  0.00  0.00     0.039 A 
ENDROOT
BRANCH   4   7
ATOM      7  O   UNL d   1       1.046  -1.267   5.999  0.00  0.00    -0.526 OA
ATOM      8  H5  UNL d   1       1.176  -0.356   5.687  0.00  0.00     0.418 HD
ENDBRANCH   4   7
TORSDOF 1
ENDMDL
