MODEL 1
REMARK minimizedAffinity 1.46205938
REMARK minimizedRMSD -1
REMARK  1 active torsions:
REMARK  status: ('A' for Active; 'I' for Inactive)
REMARK    1  A    between atoms: C3_4  and  O_7 
ROOT
ATOM      1  C   UNL d   1      -2.628  -2.900   5.999  0.00  0.00    -0.033 A 
ATOM      2  C1  UNL d   1      -3.900  -2.325   5.997  0.00  0.00     0.039 A 
ATOM      3  C2  UNL d   1      -4.040  -0.936   5.996  0.00  0.00    -0.080 A 
ATOM      4  C3  UNL d   1      -2.902  -0.135   5.995  0.00  0.00     0.150 A 
ATOM      5  C4  UNL d   1      -1.632  -0.701   5.992  0.00  0.00    -0.007 A 
ATOM      6  C5  UNL d   1      -1.494  -2.088   5.995  0.00  0.00     0.039 A 
ENDROOT
BRANCH   4   7
ATOM      7  O   UNL d   1      -2.989   1.226   5.998  0.00  0.00    -0.526 OA
ATOM      8  H5  UNL d   1      -3.928   1.474   6.029  0.00  0.00     0.418 HD
ENDBRANCH   4   7
TORSDOF 1
ENDMDL
