MODEL 1
REMARK minimizedAffinity 1.63571954
REMARK minimizedRMSD -1
REMARK  1 active torsions:
REMARK  status: ('A' for Active; 'I' for Inactive)
REMARK    1  A    between atoms: C3_4  and  O_7 
ROOT
ATOM      1  C   UNL d   1      -5.823   4.811   1.863  0.00  0.00    -0.033 A 
ATOM      2  C1  UNL d   1      -6.000   5.827   0.922  0.00  0.00     0.039 A 
ATOM      3  C2  UNL d   1      -5.070   6.000  -0.105  0.00  0.00    -0.080 A 
ATOM      4  C3  UNL d   1      -3.970   5.150  -0.180  0.00  0.00     0.150 A 
ATOM      5  C4  UNL d   1      -3.790   4.133   0.752  0.00  0.00    -0.007 A 
ATOM      6  C5  UNL d   1      -4.719   3.963   1.778  0.00  0.00     0.039 A 
ENDROOT
BRANCH   4   7
ATOM      7  O   UNL d   1      -3.033   5.282  -1.161  0.00  0.00    -0.526 OA
ATOM      8  H5  UNL d   1      -3.272   6.044  -1.715  0.00  0.00     0.418 HD
ENDBRANCH   4   7
TORSDOF 1
ENDMDL
