MODEL 1
REMARK minimizedAffinity 7.09059525
REMARK minimizedRMSD -1
REMARK  1 active torsions:
REMARK  status: ('A' for Active; 'I' for Inactive)
REMARK    1  A    between atoms: C3_4  and  O_7 
ROOT
ATOM      1  C   UNL d   1      -5.947   4.668   0.778  0.00  0.00    -0.033 A 
ATOM      2  C1  UNL d   1      -5.942   3.501   1.545  0.00  0.00     0.039 A 
ATOM      3  C2  UNL d   1      -5.948   3.581   2.939  0.00  0.00    -0.080 A 
ATOM      4  C3  UNL d   1      -5.959   4.831   3.552  0.00  0.00     0.150 A 
ATOM      5  C4  UNL d   1      -5.968   5.997   2.793  0.00  0.00    -0.007 A 
ATOM      6  C5  UNL d   1      -5.961   5.915   1.402  0.00  0.00     0.039 A 
ENDROOT
BRANCH   4   7
ATOM      7  O   UNL d   1      -5.961   4.959   4.909  0.00  0.00    -0.526 OA
ATOM      8  H5  UNL d   1      -5.925   4.071   5.302  0.00  0.00     0.418 HD
ENDBRANCH   4   7
TORSDOF 1
ENDMDL
