MODEL 1
REMARK minimizedAffinity 6.43106842
REMARK minimizedRMSD -1
REMARK  1 active torsions:
REMARK  status: ('A' for Active; 'I' for Inactive)
REMARK    1  A    between atoms: C3_4  and  O_7 
ROOT
ATOM      1  C   UNL d   1      -4.458   1.398   5.951  0.00  0.00    -0.033 A 
ATOM      2  C1  UNL d   1      -3.063   1.430   5.896  0.00  0.00     0.039 A 
ATOM      3  C2  UNL d   1      -2.335   0.239   5.895  0.00  0.00    -0.080 A 
ATOM      4  C3  UNL d   1      -3.013  -0.976   5.947  0.00  0.00     0.150 A 
ATOM      5  C4  UNL d   1      -4.402  -1.016   5.997  0.00  0.00    -0.007 A 
ATOM      6  C5  UNL d   1      -5.127   0.175   5.999  0.00  0.00     0.039 A 
ENDROOT
BRANCH   4   7
ATOM      7  O   UNL d   1      -2.346  -2.165   5.952  0.00  0.00    -0.526 OA
ATOM      8  H5  UNL d   1      -1.391  -1.982   5.943  0.00  0.00     0.418 HD
ENDBRANCH   4   7
TORSDOF 1
ENDMDL
