MODEL 1
REMARK minimizedAffinity 6.72201729
REMARK minimizedRMSD -1
REMARK  1 active torsions:
REMARK  status: ('A' for Active; 'I' for Inactive)
REMARK    1  A    between atoms: C3_4  and  O_7 
ROOT
ATOM      1  C   UNL d   1       4.043   3.061   0.209  0.00  0.00    -0.033 A 
ATOM      2  C1  UNL d   1       3.386   2.677   1.379  0.00  0.00     0.039 A 
ATOM      3  C2  UNL d   1       4.030   1.857   2.308  0.00  0.00    -0.080 A 
ATOM      4  C3  UNL d   1       5.331   1.430   2.055  0.00  0.00     0.150 A 
ATOM      5  C4  UNL d   1       5.994   1.812   0.894  0.00  0.00    -0.007 A 
ATOM      6  C5  UNL d   1       5.348   2.630  -0.033  0.00  0.00     0.039 A 
ENDROOT
BRANCH   4   7
ATOM      7  O   UNL d   1       6.000   0.626   2.930  0.00  0.00    -0.526 OA
ATOM      8  H5  UNL d   1       5.408   0.420   3.672  0.00  0.00     0.418 HD
ENDBRANCH   4   7
TORSDOF 1
ENDMDL
