MODEL 1
REMARK minimizedAffinity 2.49428272
REMARK minimizedRMSD -1
REMARK  1 active torsions:
REMARK  status: ('A' for Active; 'I' for Inactive)
REMARK    1  A    between atoms: C3_4  and  O_7 
ROOT
ATOM      1  C   UNL d   1      -5.995   4.885   1.543  0.00  0.00    -0.033 A 
ATOM      2  C1  UNL d   1      -5.998   5.992   0.691  0.00  0.00     0.039 A 
ATOM      3  C2  UNL d   1      -5.260   5.965  -0.493  0.00  0.00    -0.080 A 
ATOM      4  C3  UNL d   1      -4.524   4.828  -0.815  0.00  0.00     0.150 A 
ATOM      5  C4  UNL d   1      -4.520   3.721   0.027  0.00  0.00    -0.007 A 
ATOM      6  C5  UNL d   1      -5.257   3.749   1.210  0.00  0.00     0.039 A 
ENDROOT
BRANCH   4   7
ATOM      7  O   UNL d   1      -3.784   4.757  -1.957  0.00  0.00    -0.526 OA
ATOM      8  H5  UNL d   1      -3.859   5.605  -2.426  0.00  0.00     0.418 HD
ENDBRANCH   4   7
TORSDOF 1
ENDMDL
