MODEL 1
REMARK minimizedAffinity -3.24193215
REMARK minimizedRMSD -1
REMARK  1 active torsions:
REMARK  status: ('A' for Active; 'I' for Inactive)
REMARK    1  A    between atoms: C1_2  and  C2_3 
ROOT
ATOM      1  C2  UNL d   1       0.629   2.258  -1.930  0.00  0.00    -0.077 A 
ATOM      2  C3  UNL d   1       1.739   1.822  -2.667  0.00  0.00     0.002 A 
ATOM      3  C4  UNL d   1       1.945   2.278  -3.970  0.00  0.00     0.002 A 
ATOM      4  C5  UNL d   1       1.048   3.176  -4.546  0.00  0.00    -0.004 A 
ATOM      5  C6  UNL d   1      -0.060   3.614  -3.822  0.00  0.00     0.002 A 
ATOM      6  C7  UNL d   1      -0.268   3.158  -2.519  0.00  0.00     0.002 A 
ENDROOT
BRANCH   1   7
ATOM      7  C1  UNL d   1       0.431   1.805  -0.507  0.00  0.00     0.055 C 
ATOM      8  C   UNL d   1      -0.171   0.408  -0.449  0.00  0.00     0.019 C 
ENDBRANCH   1   7
TORSDOF 1
ENDMDL
