MODEL 1
REMARK minimizedAffinity -3.89545059
REMARK minimizedRMSD -1
REMARK  1 active torsions:
REMARK  status: ('A' for Active; 'I' for Inactive)
REMARK    1  A    between atoms: C1_2  and  C2_3 
ROOT
ATOM      1  C2  UNL d   1      -0.482  -0.706   0.834  0.00  0.00    -0.077 A 
ATOM      2  C3  UNL d   1       0.718  -0.456   0.154  0.00  0.00     0.002 A 
ATOM      3  C4  UNL d   1       1.015   0.828  -0.306  0.00  0.00     0.002 A 
ATOM      4  C5  UNL d   1       0.120   1.873  -0.087  0.00  0.00    -0.004 A 
ATOM      5  C6  UNL d   1      -1.077   1.634   0.587  0.00  0.00     0.002 A 
ATOM      6  C7  UNL d   1      -1.377   0.351   1.046  0.00  0.00     0.002 A 
ENDROOT
BRANCH   1   7
ATOM      7  C1  UNL d   1      -0.783  -2.080   1.374  0.00  0.00     0.055 C 
ATOM      8  C   UNL d   1       0.165  -2.449   2.506  0.00  0.00     0.019 C 
ENDBRANCH   1   7
TORSDOF 1
ENDMDL
