MODEL 1
REMARK minimizedAffinity -1.91207564
REMARK minimizedRMSD -1
REMARK  1 active torsions:
REMARK  status: ('A' for Active; 'I' for Inactive)
REMARK    1  A    between atoms: C1_2  and  C2_3 
ROOT
ATOM      1  C2  UNL d   1       1.722   0.915   0.736  0.00  0.00    -0.077 A 
ATOM      2  C3  UNL d   1       2.535   2.025   1.003  0.00  0.00     0.002 A 
ATOM      3  C4  UNL d   1       3.711   1.878   1.741  0.00  0.00     0.002 A 
ATOM      4  C5  UNL d   1       4.086   0.623   2.215  0.00  0.00    -0.004 A 
ATOM      5  C6  UNL d   1       3.283  -0.487   1.956  0.00  0.00     0.002 A 
ATOM      6  C7  UNL d   1       2.107  -0.342   1.220  0.00  0.00     0.002 A 
ENDROOT
BRANCH   1   7
ATOM      7  C1  UNL d   1       0.479   1.063  -0.102  0.00  0.00     0.055 C 
ATOM      8  C   UNL d   1      -0.668   0.234   0.458  0.00  0.00     0.019 C 
ENDBRANCH   1   7
TORSDOF 1
ENDMDL
