MODEL 1
REMARK minimizedAffinity 2.27251697
REMARK minimizedRMSD -1
REMARK  1 active torsions:
REMARK  status: ('A' for Active; 'I' for Inactive)
REMARK    1  A    between atoms: C1_2  and  C2_3 
ROOT
ATOM      1  C2  UNL d   1      -0.747  -0.351  -1.124  0.00  0.00    -0.077 A 
ATOM      2  C3  UNL d   1      -1.661  -1.300  -0.645  0.00  0.00     0.002 A 
ATOM      3  C4  UNL d   1      -2.382  -1.057   0.526  0.00  0.00     0.002 A 
ATOM      4  C5  UNL d   1      -2.200   0.134   1.224  0.00  0.00    -0.004 A 
ATOM      5  C6  UNL d   1      -1.291   1.083   0.757  0.00  0.00     0.002 A 
ATOM      6  C7  UNL d   1      -0.569   0.842  -0.412  0.00  0.00     0.002 A 
ENDROOT
BRANCH   1   7
ATOM      7  C1  UNL d   1      -0.004  -0.589  -2.413  0.00  0.00     0.055 C 
ATOM      8  C   UNL d   1       0.269   0.718  -3.143  0.00  0.00     0.019 C 
ENDBRANCH   1   7
TORSDOF 1
ENDMDL
