MODEL 1
REMARK minimizedAffinity -0.854509056
REMARK minimizedRMSD -1
REMARK  1 active torsions:
REMARK  status: ('A' for Active; 'I' for Inactive)
REMARK    1  A    between atoms: C1_2  and  C2_3 
ROOT
ATOM      1  C2  UNL d   1       1.314   0.387   0.322  0.00  0.00    -0.077 A 
ATOM      2  C3  UNL d   1       2.153  -0.692   0.635  0.00  0.00     0.002 A 
ATOM      3  C4  UNL d   1       3.393  -0.471   1.237  0.00  0.00     0.002 A 
ATOM      4  C5  UNL d   1       3.804   0.826   1.533  0.00  0.00    -0.004 A 
ATOM      5  C6  UNL d   1       2.979   1.906   1.223  0.00  0.00     0.002 A 
ATOM      6  C7  UNL d   1       1.739   1.688   0.621  0.00  0.00     0.002 A 
ENDROOT
BRANCH   1   7
ATOM      7  C1  UNL d   1      -0.045   0.147  -0.282  0.00  0.00     0.055 C 
ATOM      8  C   UNL d   1      -1.155   0.548   0.678  0.00  0.00     0.019 C 
ENDBRANCH   1   7
TORSDOF 1
ENDMDL
