MODEL 1
REMARK minimizedAffinity -2.74823713
REMARK minimizedRMSD -1
REMARK  1 active torsions:
REMARK  status: ('A' for Active; 'I' for Inactive)
REMARK    1  A    between atoms: C1_2  and  C2_3 
ROOT
ATOM      1  C2  UNL d   1       2.029   0.447   0.759  0.00  0.00    -0.077 A 
ATOM      2  C3  UNL d   1       1.047   1.228   0.134  0.00  0.00     0.002 A 
ATOM      3  C4  UNL d   1      -0.125   0.639  -0.344  0.00  0.00     0.002 A 
ATOM      4  C5  UNL d   1      -0.328  -0.731  -0.199  0.00  0.00    -0.004 A 
ATOM      5  C6  UNL d   1       0.644  -1.517   0.419  0.00  0.00     0.002 A 
ATOM      6  C7  UNL d   1       1.817  -0.931   0.897  0.00  0.00     0.002 A 
ENDROOT
BRANCH   1   7
ATOM      7  C1  UNL d   1       3.272   1.088   1.320  0.00  0.00     0.055 C 
ATOM      8  C   UNL d   1       4.257   0.041   1.820  0.00  0.00     0.019 C 
ENDBRANCH   1   7
TORSDOF 1
ENDMDL
