MODEL 1
REMARK minimizedAffinity -4.16651344
REMARK minimizedRMSD -1
REMARK  1 active torsions:
REMARK  status: ('A' for Active; 'I' for Inactive)
REMARK    1  A    between atoms: C1_2  and  C2_3 
ROOT
ATOM      1  C2  UNL d   1      -0.381  -0.499   0.415  0.00  0.00    -0.077 A 
ATOM      2  C3  UNL d   1      -1.642  -1.027   0.106  0.00  0.00     0.002 A 
ATOM      3  C4  UNL d   1      -1.997  -2.307   0.537  0.00  0.00     0.002 A 
ATOM      4  C5  UNL d   1      -1.098  -3.067   1.281  0.00  0.00    -0.004 A 
ATOM      5  C6  UNL d   1       0.160  -2.552   1.591  0.00  0.00     0.002 A 
ATOM      6  C7  UNL d   1       0.517  -1.274   1.161  0.00  0.00     0.002 A 
ENDROOT
BRANCH   1   7
ATOM      7  C1  UNL d   1      -0.014   0.900  -0.006  0.00  0.00     0.055 C 
ATOM      8  C   UNL d   1      -0.904   1.933   0.670  0.00  0.00     0.019 C 
ENDBRANCH   1   7
TORSDOF 1
ENDMDL
