MODEL 1
REMARK minimizedAffinity -5.37104177
REMARK minimizedRMSD -1
REMARK  1 active torsions:
REMARK  status: ('A' for Active; 'I' for Inactive)
REMARK    1  A    between atoms: C1_2  and  C2_3 
ROOT
ATOM      1  C2  UNL d   1       0.884  -1.007   0.795  0.00  0.00    -0.077 A 
ATOM      2  C3  UNL d   1       0.199  -2.073   1.396  0.00  0.00     0.002 A 
ATOM      3  C4  UNL d   1      -1.177  -2.221   1.213  0.00  0.00     0.002 A 
ATOM      4  C5  UNL d   1      -1.878  -1.310   0.426  0.00  0.00    -0.004 A 
ATOM      5  C6  UNL d   1      -1.206  -0.245  -0.174  0.00  0.00     0.002 A 
ATOM      6  C7  UNL d   1       0.169  -0.095   0.009  0.00  0.00     0.002 A 
ENDROOT
BRANCH   1   7
ATOM      7  C1  UNL d   1       2.377  -0.874   0.952  0.00  0.00     0.055 C 
ATOM      8  C   UNL d   1       2.753   0.475   1.548  0.00  0.00     0.019 C 
ENDBRANCH   1   7
TORSDOF 1
ENDMDL
