MODEL 1
REMARK minimizedAffinity 9.41544724
REMARK minimizedRMSD -1
REMARK  3 active torsions:
REMARK  status: ('A' for Active; 'I' for Inactive)
REMARK    1  A    between atoms: C3'_2  and  C2'_3 
REMARK    2  A    between atoms: C2'_3  and  C1'_4 
REMARK    3  A    between atoms: C1'_4  and  C1_5 
ROOT
ATOM      1  C1  N4B d   1       2.431   3.281  -5.967  0.00  0.00    -0.075 A 
ATOM      2  C2  N4B d   1       1.114   3.775  -5.836  0.00  0.00     0.002 A 
ATOM      3  C3  N4B d   1       0.896   5.127  -5.730  0.00  0.00     0.002 A 
ATOM      4  C4  N4B d   1       1.974   5.998  -5.734  0.00  0.00    -0.004 A 
ATOM      5  C5  N4B d   1       3.241   5.515  -5.887  0.00  0.00     0.002 A 
ATOM      6  C6  N4B d   1       3.475   4.159  -5.998  0.00  0.00     0.002 A 
ENDROOT
BRANCH   1   7
ATOM      7  C1' N4B d   1       2.726   1.806  -6.000  0.00  0.00     0.057 C 
BRANCH   7   8
ATOM      8  C2' N4B d   1       4.237   1.598  -5.999  0.00  0.00     0.009 C 
BRANCH   8   9
ATOM      9  C3' N4B d   1       4.648   0.418  -5.135  0.00  0.00     0.004 C 
ATOM     10  C4' N4B d   1       5.932   0.657  -4.398  0.00  0.00     0.003 C 
ENDBRANCH   8   9
ENDBRANCH   7   8
ENDBRANCH   1   7
TORSDOF 3
ENDMDL
