MODEL 1
REMARK minimizedAffinity -1.75673831
REMARK minimizedRMSD -1
REMARK  3 active torsions:
REMARK  status: ('A' for Active; 'I' for Inactive)
REMARK    1  A    between atoms: C3'_2  and  C2'_3 
REMARK    2  A    between atoms: C2'_3  and  C1'_4 
REMARK    3  A    between atoms: C1'_4  and  C1_5 
ROOT
ATOM      1  C1  N4B d   1       4.389   2.353  -0.637  0.00  0.00    -0.075 A 
ATOM      2  C2  N4B d   1       3.289   3.184  -0.332  0.00  0.00     0.002 A 
ATOM      3  C3  N4B d   1       2.536   2.942   0.791  0.00  0.00     0.002 A 
ATOM      4  C4  N4B d   1       2.852   1.868   1.610  0.00  0.00    -0.004 A 
ATOM      5  C5  N4B d   1       3.931   1.085   1.322  0.00  0.00     0.002 A 
ATOM      6  C6  N4B d   1       4.699   1.319   0.199  0.00  0.00     0.002 A 
ENDROOT
BRANCH   1   7
ATOM      7  C1' N4B d   1       5.189   2.526  -1.899  0.00  0.00     0.057 C 
BRANCH   7   8
ATOM      8  C2' N4B d   1       4.424   3.435  -2.856  0.00  0.00     0.009 C 
BRANCH   8   9
ATOM      9  C3' N4B d   1       3.895   2.676  -4.061  0.00  0.00     0.004 C 
ATOM     10  C4' N4B d   1       3.120   3.549  -5.003  0.00  0.00     0.003 C 
ENDBRANCH   8   9
ENDBRANCH   7   8
ENDBRANCH   1   7
TORSDOF 3
ENDMDL
