MODEL 1
REMARK minimizedAffinity 8.54320812
REMARK minimizedRMSD -1
REMARK  3 active torsions:
REMARK  status: ('A' for Active; 'I' for Inactive)
REMARK    1  A    between atoms: C3'_2  and  C2'_3 
REMARK    2  A    between atoms: C2'_3  and  C1'_4 
REMARK    3  A    between atoms: C1'_4  and  C1_5 
ROOT
ATOM      1  C1  N4B d   1      -2.003  -1.452  -0.836  0.00  0.00    -0.075 A 
ATOM      2  C2  N4B d   1      -0.699  -1.909  -0.543  0.00  0.00     0.002 A 
ATOM      3  C3  N4B d   1      -0.257  -1.933   0.757  0.00  0.00     0.002 A 
ATOM      4  C4  N4B d   1      -1.090  -1.489   1.774  0.00  0.00    -0.004 A 
ATOM      5  C5  N4B d   1      -2.357  -1.073   1.484  0.00  0.00     0.002 A 
ATOM      6  C6  N4B d   1      -2.816  -1.048   0.183  0.00  0.00     0.002 A 
ENDROOT
BRANCH   1   7
ATOM      7  C1' N4B d   1      -2.501  -1.326  -2.250  0.00  0.00     0.057 C 
BRANCH   7   8
ATOM      8  C2' N4B d   1      -2.151  -2.597  -3.019  0.00  0.00     0.009 C 
BRANCH   8   9
ATOM      9  C3' N4B d   1      -1.764  -2.302  -4.458  0.00  0.00     0.004 C 
ATOM     10  C4' N4B d   1      -2.850  -2.647  -5.434  0.00  0.00     0.003 C 
ENDBRANCH   8   9
ENDBRANCH   7   8
ENDBRANCH   1   7
TORSDOF 3
ENDMDL
