MODEL 1
REMARK minimizedAffinity 6.61863852
REMARK minimizedRMSD -1
REMARK  3 active torsions:
REMARK  status: ('A' for Active; 'I' for Inactive)
REMARK    1  A    between atoms: C3'_2  and  C2'_3 
REMARK    2  A    between atoms: C2'_3  and  C1'_4 
REMARK    3  A    between atoms: C1'_4  and  C1_5 
ROOT
ATOM      1  C1  N4B d   1       1.996   4.827  -3.703  0.00  0.00    -0.075 A 
ATOM      2  C2  N4B d   1       1.504   5.010  -5.013  0.00  0.00     0.002 A 
ATOM      3  C3  N4B d   1       2.302   5.583  -5.973  0.00  0.00     0.002 A 
ATOM      4  C4  N4B d   1       3.584   5.996  -5.642  0.00  0.00    -0.004 A 
ATOM      5  C5  N4B d   1       4.061   5.791  -4.380  0.00  0.00     0.002 A 
ATOM      6  C6  N4B d   1       3.271   5.213  -3.407  0.00  0.00     0.002 A 
ENDROOT
BRANCH   1   7
ATOM      7  C1' N4B d   1       1.132   4.283  -2.598  0.00  0.00     0.057 C 
BRANCH   7   8
ATOM      8  C2' N4B d   1      -0.331   4.584  -2.913  0.00  0.00     0.009 C 
BRANCH   8   9
ATOM      9  C3' N4B d   1      -1.198   4.552  -1.667  0.00  0.00     0.004 C 
ATOM     10  C4' N4B d   1      -1.758   5.898  -1.314  0.00  0.00     0.003 C 
ENDBRANCH   8   9
ENDBRANCH   7   8
ENDBRANCH   1   7
TORSDOF 3
ENDMDL
