MODEL 1
REMARK minimizedAffinity 4.788167
REMARK minimizedRMSD -1
REMARK  3 active torsions:
REMARK  status: ('A' for Active; 'I' for Inactive)
REMARK    1  A    between atoms: C3'_2  and  C2'_3 
REMARK    2  A    between atoms: C2'_3  and  C1'_4 
REMARK    3  A    between atoms: C1'_4  and  C1_5 
ROOT
ATOM      1  C1  N4B d   1      -1.853  -3.462  -3.658  0.00  0.00    -0.075 A 
ATOM      2  C2  N4B d   1      -1.491  -3.149  -4.987  0.00  0.00     0.002 A 
ATOM      3  C3  N4B d   1      -2.410  -3.287  -5.998  0.00  0.00     0.002 A 
ATOM      4  C4  N4B d   1      -3.684  -3.751  -5.709  0.00  0.00    -0.004 A 
ATOM      5  C5  N4B d   1      -4.033  -4.027  -4.419  0.00  0.00     0.002 A 
ATOM      6  C6  N4B d   1      -3.121  -3.889  -3.392  0.00  0.00     0.002 A 
ENDROOT
BRANCH   1   7
ATOM      7  C1' N4B d   1      -0.857  -3.409  -2.531  0.00  0.00     0.057 C 
BRANCH   7   8
ATOM      8  C2' N4B d   1      -0.579  -1.951  -2.176  0.00  0.00     0.009 C 
BRANCH   8   9
ATOM      9  C3' N4B d   1      -0.428  -1.750  -0.678  0.00  0.00     0.004 C 
ATOM     10  C4' N4B d   1      -1.694  -1.282  -0.024  0.00  0.00     0.003 C 
ENDBRANCH   8   9
ENDBRANCH   7   8
ENDBRANCH   1   7
TORSDOF 3
ENDMDL
