MODEL 1
REMARK minimizedAffinity 3.2975955
REMARK minimizedRMSD -1
REMARK  3 active torsions:
REMARK  status: ('A' for Active; 'I' for Inactive)
REMARK    1  A    between atoms: C3'_2  and  C2'_3 
REMARK    2  A    between atoms: C2'_3  and  C1'_4 
REMARK    3  A    between atoms: C1'_4  and  C1_5 
ROOT
ATOM      1  C1  N4B d   1       1.506   4.592  -3.960  0.00  0.00    -0.075 A 
ATOM      2  C2  N4B d   1       1.939   3.496  -4.738  0.00  0.00     0.002 A 
ATOM      3  C3  N4B d   1       2.880   3.682  -5.721  0.00  0.00     0.002 A 
ATOM      4  C4  N4B d   1       3.386   4.952  -5.956  0.00  0.00    -0.004 A 
ATOM      5  C5  N4B d   1       2.981   6.000  -5.182  0.00  0.00     0.002 A 
ATOM      6  C6  N4B d   1       2.039   5.827  -4.188  0.00  0.00     0.002 A 
ENDROOT
BRANCH   1   7
ATOM      7  C1' N4B d   1       0.417   4.454  -2.931  0.00  0.00     0.057 C 
BRANCH   7   8
ATOM      8  C2' N4B d   1      -0.052   5.843  -2.510  0.00  0.00     0.009 C 
BRANCH   8   9
ATOM      9  C3' N4B d   1      -1.460   5.819  -1.939  0.00  0.00     0.004 C 
ATOM     10  C4' N4B d   1      -1.486   5.998  -0.450  0.00  0.00     0.003 C 
ENDBRANCH   8   9
ENDBRANCH   7   8
ENDBRANCH   1   7
TORSDOF 3
ENDMDL
