MODEL 1
REMARK minimizedAffinity 2.39113951
REMARK minimizedRMSD -1
REMARK  3 active torsions:
REMARK  status: ('A' for Active; 'I' for Inactive)
REMARK    1  A    between atoms: C3'_2  and  C2'_3 
REMARK    2  A    between atoms: C2'_3  and  C1'_4 
REMARK    3  A    between atoms: C1'_4  and  C1_5 
ROOT
ATOM      1  C1  N4B d   1      -2.133  -2.008  -3.153  0.00  0.00    -0.075 A 
ATOM      2  C2  N4B d   1      -1.851  -1.769  -4.515  0.00  0.00     0.002 A 
ATOM      3  C3  N4B d   1      -2.264  -2.665  -5.470  0.00  0.00     0.002 A 
ATOM      4  C4  N4B d   1      -2.942  -3.813  -5.085  0.00  0.00    -0.004 A 
ATOM      5  C5  N4B d   1      -3.233  -4.024  -3.769  0.00  0.00     0.002 A 
ATOM      6  C6  N4B d   1      -2.827  -3.129  -2.800  0.00  0.00     0.002 A 
ENDROOT
BRANCH   1   7
ATOM      7  C1' N4B d   1      -1.627  -1.100  -2.065  0.00  0.00     0.057 C 
BRANCH   7   8
ATOM      8  C2' N4B d   1      -2.006  -1.684  -0.708  0.00  0.00     0.009 C 
BRANCH   8   9
ATOM      9  C3' N4B d   1      -0.786  -2.116   0.086  0.00  0.00     0.004 C 
ATOM     10  C4' N4B d   1       0.489  -1.532  -0.445  0.00  0.00     0.003 C 
ENDBRANCH   8   9
ENDBRANCH   7   8
ENDBRANCH   1   7
TORSDOF 3
ENDMDL
