MODEL 1
REMARK minimizedAffinity 2.09636068
REMARK minimizedRMSD -1
REMARK  3 active torsions:
REMARK  status: ('A' for Active; 'I' for Inactive)
REMARK    1  A    between atoms: C3'_2  and  C2'_3 
REMARK    2  A    between atoms: C2'_3  and  C1'_4 
REMARK    3  A    between atoms: C1'_4  and  C1_5 
ROOT
ATOM      1  C1  N4B d   1      -3.466  -4.097  -1.353  0.00  0.00    -0.075 A 
ATOM      2  C2  N4B d   1      -4.132  -3.241  -0.448  0.00  0.00     0.002 A 
ATOM      3  C3  N4B d   1      -5.379  -3.575   0.022  0.00  0.00     0.002 A 
ATOM      4  C4  N4B d   1      -5.984  -4.745  -0.412  0.00  0.00    -0.004 A 
ATOM      5  C5  N4B d   1      -5.323  -5.579  -1.267  0.00  0.00     0.002 A 
ATOM      6  C6  N4B d   1      -4.068  -5.257  -1.743  0.00  0.00     0.002 A 
ENDROOT
BRANCH   1   7
ATOM      7  C1' N4B d   1      -2.138  -3.732  -1.959  0.00  0.00     0.057 C 
BRANCH   7   8
ATOM      8  C2' N4B d   1      -1.853  -2.257  -1.691  0.00  0.00     0.009 C 
BRANCH   8   9
ATOM      9  C3' N4B d   1      -0.952  -2.063  -0.484  0.00  0.00     0.004 C 
ATOM     10  C4' N4B d   1       0.264  -2.940  -0.520  0.00  0.00     0.003 C 
ENDBRANCH   8   9
ENDBRANCH   7   8
ENDBRANCH   1   7
TORSDOF 3
ENDMDL
