MODEL 1
REMARK minimizedAffinity 3.06017828
REMARK minimizedRMSD -1
REMARK  3 active torsions:
REMARK  status: ('A' for Active; 'I' for Inactive)
REMARK    1  A    between atoms: C3'_2  and  C2'_3 
REMARK    2  A    between atoms: C2'_3  and  C1'_4 
REMARK    3  A    between atoms: C1'_4  and  C1_5 
ROOT
ATOM      1  C1  N4B d   1       3.149   3.373  -4.565  0.00  0.00    -0.075 A 
ATOM      2  C2  N4B d   1       1.948   3.161  -5.277  0.00  0.00     0.002 A 
ATOM      3  C3  N4B d   1       1.384   4.188  -5.994  0.00  0.00     0.002 A 
ATOM      4  C4  N4B d   1       1.991   5.435  -5.999  0.00  0.00    -0.004 A 
ATOM      5  C5  N4B d   1       3.165   5.625  -5.330  0.00  0.00     0.002 A 
ATOM      6  C6  N4B d   1       3.744   4.601  -4.608  0.00  0.00     0.002 A 
ENDROOT
BRANCH   1   7
ATOM      7  C1' N4B d   1       3.757   2.305  -3.697  0.00  0.00     0.057 C 
BRANCH   7   8
ATOM      8  C2' N4B d   1       4.206   2.928  -2.379  0.00  0.00     0.009 C 
BRANCH   8   9
ATOM      9  C3' N4B d   1       4.205   1.917  -1.244  0.00  0.00     0.004 C 
ATOM     10  C4' N4B d   1       3.223   2.258  -0.163  0.00  0.00     0.003 C 
ENDBRANCH   8   9
ENDBRANCH   7   8
ENDBRANCH   1   7
TORSDOF 3
ENDMDL
