MODEL 1
REMARK minimizedAffinity 19.7874737
REMARK minimizedRMSD -1
REMARK  3 active torsions:
REMARK  status: ('A' for Active; 'I' for Inactive)
REMARK    1  A    between atoms: C3'_2  and  C2'_3 
REMARK    2  A    between atoms: C2'_3  and  C1'_4 
REMARK    3  A    between atoms: C1'_4  and  C1_5 
ROOT
ATOM      1  C1  N4B d   1      -2.825  -1.397   3.810  0.00  0.00    -0.075 A 
ATOM      2  C2  N4B d   1      -1.674  -0.811   3.241  0.00  0.00     0.002 A 
ATOM      3  C3  N4B d   1      -0.732  -1.602   2.628  0.00  0.00     0.002 A 
ATOM      4  C4  N4B d   1      -0.912  -2.977   2.590  0.00  0.00    -0.004 A 
ATOM      5  C5  N4B d   1      -2.039  -3.532   3.119  0.00  0.00     0.002 A 
ATOM      6  C6  N4B d   1      -2.995  -2.749   3.735  0.00  0.00     0.002 A 
ENDROOT
BRANCH   1   7
ATOM      7  C1' N4B d   1      -3.840  -0.583   4.565  0.00  0.00     0.057 C 
BRANCH   7   8
ATOM      8  C2' N4B d   1      -4.652  -1.507   5.468  0.00  0.00     0.009 C 
BRANCH   8   9
ATOM      9  C3' N4B d   1      -5.903  -0.828   5.998  0.00  0.00     0.004 C 
ATOM     10  C4' N4B d   1      -5.800   0.668   5.990  0.00  0.00     0.003 C 
ENDBRANCH   8   9
ENDBRANCH   7   8
ENDBRANCH   1   7
TORSDOF 3
ENDMDL
