MODEL 1
REMARK minimizedAffinity 2.18318343
REMARK minimizedRMSD -1
REMARK  3 active torsions:
REMARK  status: ('A' for Active; 'I' for Inactive)
REMARK    1  A    between atoms: C3'_2  and  C2'_3 
REMARK    2  A    between atoms: C2'_3  and  C1'_4 
REMARK    3  A    between atoms: C1'_4  and  C1_5 
ROOT
ATOM      1  C1  N4B d   1       4.069   3.466  -5.882  0.00  0.00    -0.075 A 
ATOM      2  C2  N4B d   1       2.671   3.631  -5.995  0.00  0.00     0.002 A 
ATOM      3  C3  N4B d   1       2.126   4.891  -5.999  0.00  0.00     0.002 A 
ATOM      4  C4  N4B d   1       2.954   5.997  -5.874  0.00  0.00    -0.004 A 
ATOM      5  C5  N4B d   1       4.306   5.830  -5.791  0.00  0.00     0.002 A 
ATOM      6  C6  N4B d   1       4.867   4.569  -5.789  0.00  0.00     0.002 A 
ENDROOT
BRANCH   1   7
ATOM      7  C1' N4B d   1       4.703   2.105  -5.786  0.00  0.00     0.057 C 
BRANCH   7   8
ATOM      8  C2' N4B d   1       5.191   1.880  -4.358  0.00  0.00     0.009 C 
BRANCH   8   9
ATOM      9  C3' N4B d   1       5.153   3.157  -3.536  0.00  0.00     0.004 C 
ATOM     10  C4' N4B d   1       5.474   2.927  -2.090  0.00  0.00     0.003 C 
ENDBRANCH   8   9
ENDBRANCH   7   8
ENDBRANCH   1   7
TORSDOF 3
ENDMDL
