MODEL 1
REMARK minimizedAffinity 7.94965315
REMARK minimizedRMSD -1
REMARK  3 active torsions:
REMARK  status: ('A' for Active; 'I' for Inactive)
REMARK    1  A    between atoms: C3'_2  and  C2'_3 
REMARK    2  A    between atoms: C2'_3  and  C1'_4 
REMARK    3  A    between atoms: C1'_4  and  C1_5 
ROOT
ATOM      1  C1  N4B d   1      -2.859  -2.358  -2.332  0.00  0.00    -0.075 A 
ATOM      2  C2  N4B d   1      -4.076  -2.903  -2.800  0.00  0.00     0.002 A 
ATOM      3  C3  N4B d   1      -4.177  -3.344  -4.097  0.00  0.00     0.002 A 
ATOM      4  C4  N4B d   1      -3.085  -3.234  -4.945  0.00  0.00    -0.004 A 
ATOM      5  C5  N4B d   1      -1.906  -2.730  -4.478  0.00  0.00     0.002 A 
ATOM      6  C6  N4B d   1      -1.789  -2.287  -3.176  0.00  0.00     0.002 A 
ENDROOT
BRANCH   1   7
ATOM      7  C1' N4B d   1      -2.727  -1.784  -0.948  0.00  0.00     0.057 C 
BRANCH   7   8
ATOM      8  C2' N4B d   1      -1.259  -1.470  -0.675  0.00  0.00     0.009 C 
BRANCH   8   9
ATOM      9  C3' N4B d   1      -0.714  -2.273   0.494  0.00  0.00     0.004 C 
ATOM     10  C4' N4B d   1       0.514  -3.057   0.138  0.00  0.00     0.003 C 
ENDBRANCH   8   9
ENDBRANCH   7   8
ENDBRANCH   1   7
TORSDOF 3
ENDMDL
