MODEL 1
REMARK minimizedAffinity 3.8920455
REMARK minimizedRMSD -1
REMARK  0 active torsions:
REMARK  status: ('A' for Active; 'I' for Inactive)
ROOT
ATOM      1  C   UNL d   1       4.372   1.730   4.134  0.00  0.00     0.020 A 
ATOM      2  C1  UNL d   1       4.646   2.795   4.991  0.00  0.00     0.020 A 
ATOM      3  C2  UNL d   1       4.618   4.105   4.508  0.00  0.00     0.034 A 
ATOM      4  C3  UNL d   1       4.315   4.353   3.164  0.00  0.00     0.017 A 
ATOM      5  C4  UNL d   1       4.040   3.284   2.305  0.00  0.00     0.017 A 
ATOM      6  C5  UNL d   1       4.070   1.974   2.793  0.00  0.00     0.034 A 
ATOM      7 Cl   UNL d   1       3.658   3.511   0.634  0.00  0.00    -0.070 Cl
ATOM      8 Cl1  UNL d   1       4.297   5.998   2.635  0.00  0.00    -0.070 Cl
ENDROOT
TORSDOF 0
ENDMDL
