MODEL 1
REMARK minimizedAffinity 21.6989479
REMARK minimizedRMSD -1
REMARK  0 active torsions:
REMARK  status: ('A' for Active; 'I' for Inactive)
ROOT
ATOM      1  C   UNL d   1       1.502  -2.051  -5.171  0.00  0.00     0.020 A 
ATOM      2  C1  UNL d   1       0.211  -1.531  -5.251  0.00  0.00     0.020 A 
ATOM      3  C2  UNL d   1      -0.886  -2.394  -5.309  0.00  0.00     0.034 A 
ATOM      4  C3  UNL d   1      -0.693  -3.780  -5.287  0.00  0.00     0.017 A 
ATOM      5  C4  UNL d   1       0.604  -4.300  -5.207  0.00  0.00     0.017 A 
ATOM      6  C5  UNL d   1       1.698  -3.432  -5.149  0.00  0.00     0.034 A 
ATOM      7 Cl   UNL d   1       0.921  -5.999  -5.176  0.00  0.00    -0.070 Cl
ATOM      8 Cl1  UNL d   1      -2.095  -4.788  -5.362  0.00  0.00    -0.070 Cl
ENDROOT
TORSDOF 0
ENDMDL
