MODEL 1
REMARK minimizedAffinity 7.79946375
REMARK minimizedRMSD -1
REMARK  0 active torsions:
REMARK  status: ('A' for Active; 'I' for Inactive)
ROOT
ATOM      1  C   UNL d   1      -1.310  -0.258   1.653  0.00  0.00     0.020 A 
ATOM      2  C1  UNL d   1      -1.191   1.100   1.945  0.00  0.00     0.020 A 
ATOM      3  C2  UNL d   1      -0.273   1.530   2.906  0.00  0.00     0.034 A 
ATOM      4  C3  UNL d   1       0.530   0.601   3.578  0.00  0.00     0.017 A 
ATOM      5  C4  UNL d   1       0.410  -0.762   3.284  0.00  0.00     0.017 A 
ATOM      6  C5  UNL d   1      -0.511  -1.187   2.321  0.00  0.00     0.034 A 
ATOM      7 Cl   UNL d   1       1.365  -1.968   4.072  0.00  0.00    -0.070 Cl
ATOM      8 Cl1  UNL d   1       1.644   1.203   4.754  0.00  0.00    -0.070 Cl
ENDROOT
TORSDOF 0
ENDMDL
