MODEL 1
REMARK minimizedAffinity 11.8139191
REMARK minimizedRMSD -1
REMARK  0 active torsions:
REMARK  status: ('A' for Active; 'I' for Inactive)
ROOT
ATOM      1  C   UNL d   1       2.239   3.952   6.000  0.00  0.00     0.020 A 
ATOM      2  C1  UNL d   1       1.018   3.278   6.000  0.00  0.00     0.020 A 
ATOM      3  C2  UNL d   1       0.977   1.908   5.732  0.00  0.00     0.034 A 
ATOM      4  C3  UNL d   1       2.158   1.207   5.462  0.00  0.00     0.017 A 
ATOM      5  C4  UNL d   1       3.383   1.884   5.463  0.00  0.00     0.017 A 
ATOM      6  C5  UNL d   1       3.419   3.256   5.732  0.00  0.00     0.034 A 
ATOM      7 Cl   UNL d   1       4.882   1.088   5.139  0.00  0.00    -0.070 Cl
ATOM      8 Cl1  UNL d   1       2.032  -0.485   5.140  0.00  0.00    -0.070 Cl
ENDROOT
TORSDOF 0
ENDMDL
