MODEL 1
REMARK minimizedAffinity 17.7040195
REMARK minimizedRMSD -1
REMARK  0 active torsions:
REMARK  status: ('A' for Active; 'I' for Inactive)
ROOT
ATOM      1  C   UNL d   1       5.294   2.575   5.667  0.00  0.00     0.020 A 
ATOM      2  C1  UNL d   1       5.006   1.371   5.026  0.00  0.00     0.020 A 
ATOM      3  C2  UNL d   1       4.553   1.374   3.705  0.00  0.00     0.034 A 
ATOM      4  C3  UNL d   1       4.387   2.584   3.021  0.00  0.00     0.017 A 
ATOM      5  C4  UNL d   1       4.677   3.792   3.665  0.00  0.00     0.017 A 
ATOM      6  C5  UNL d   1       5.130   3.783   4.988  0.00  0.00     0.034 A 
ATOM      7 Cl   UNL d   1       4.497   5.324   2.886  0.00  0.00    -0.070 Cl
ATOM      8 Cl1  UNL d   1       3.824   2.513   1.389  0.00  0.00    -0.070 Cl
ENDROOT
TORSDOF 0
ENDMDL
