MODEL 1
REMARK minimizedAffinity 11.4702158
REMARK minimizedRMSD -1
REMARK  0 active torsions:
REMARK  status: ('A' for Active; 'I' for Inactive)
ROOT
ATOM      1  C   UNL d   1       1.133  -0.745   3.444  0.00  0.00     0.020 A 
ATOM      2  C1  UNL d   1       0.585  -0.530   2.180  0.00  0.00     0.020 A 
ATOM      3  C2  UNL d   1      -0.169   0.619   1.932  0.00  0.00     0.034 A 
ATOM      4  C3  UNL d   1      -0.377   1.558   2.949  0.00  0.00     0.017 A 
ATOM      5  C4  UNL d   1       0.174   1.341   4.218  0.00  0.00     0.017 A 
ATOM      6  C5  UNL d   1       0.928   0.189   4.460  0.00  0.00     0.034 A 
ATOM      7 Cl   UNL d   1      -0.040   2.453   5.523  0.00  0.00    -0.070 Cl
ATOM      8 Cl1  UNL d   1      -1.319   2.956   2.572  0.00  0.00    -0.070 Cl
ENDROOT
TORSDOF 0
ENDMDL
