MODEL 1
REMARK minimizedAffinity 11.2723064
REMARK minimizedRMSD -1
REMARK  0 active torsions:
REMARK  status: ('A' for Active; 'I' for Inactive)
ROOT
ATOM      1  C   UNL d   1      -0.417   0.724   2.146  0.00  0.00     0.020 A 
ATOM      2  C1  UNL d   1      -0.811  -0.612   2.077  0.00  0.00     0.020 A 
ATOM      3  C2  UNL d   1      -0.148  -1.576   2.840  0.00  0.00     0.034 A 
ATOM      4  C3  UNL d   1       0.912  -1.206   3.675  0.00  0.00     0.017 A 
ATOM      5  C4  UNL d   1       1.307   0.135   3.743  0.00  0.00     0.017 A 
ATOM      6  C5  UNL d   1       0.640   1.096   2.977  0.00  0.00     0.034 A 
ATOM      7 Cl   UNL d   1       2.606   0.669   4.751  0.00  0.00    -0.070 Cl
ATOM      8 Cl1  UNL d   1       1.686  -2.450   4.590  0.00  0.00    -0.070 Cl
ENDROOT
TORSDOF 0
ENDMDL
