MODEL 1
REMARK minimizedAffinity 8.53318596
REMARK minimizedRMSD -1
REMARK  0 active torsions:
REMARK  status: ('A' for Active; 'I' for Inactive)
ROOT
ATOM      1  C   UNL d   1       0.026   1.561   2.991  0.00  0.00     0.020 A 
ATOM      2  C1  UNL d   1      -1.268   1.645   2.479  0.00  0.00     0.020 A 
ATOM      3  C2  UNL d   1      -2.074   0.506   2.426  0.00  0.00     0.034 A 
ATOM      4  C3  UNL d   1      -1.587  -0.723   2.887  0.00  0.00     0.017 A 
ATOM      5  C4  UNL d   1      -0.288  -0.806   3.402  0.00  0.00     0.017 A 
ATOM      6  C5  UNL d   1       0.515   0.338   3.452  0.00  0.00     0.034 A 
ATOM      7 Cl   UNL d   1       0.383  -2.287   3.989  0.00  0.00    -0.070 Cl
ATOM      8 Cl1  UNL d   1      -2.638  -2.091   2.793  0.00  0.00    -0.070 Cl
ENDROOT
TORSDOF 0
ENDMDL
