MODEL 1
REMARK minimizedAffinity 27.2674103
REMARK minimizedRMSD -1
REMARK  0 active torsions:
REMARK  status: ('A' for Active; 'I' for Inactive)
ROOT
ATOM      1  C   UNL d   1       1.397  -1.100   3.157  0.00  0.00     0.124 A 
ATOM      2  C1  UNL d   1       0.275  -0.283   3.135  0.00  0.00     0.062 A 
ATOM      3  C2  UNL d   1       0.194   0.769   2.227  0.00  0.00     0.162 A 
ATOM      4  C3  UNL d   1       1.237   1.009   1.332  0.00  0.00    -0.034 A 
ATOM      5  C4  UNL d   1       2.362   0.183   1.362  0.00  0.00     0.162 A 
ATOM      6  C5  UNL d   1       2.439  -0.866   2.271  0.00  0.00     0.062 A 
ATOM      7  F   UNL d   1       3.523  -1.655   2.292  0.00  0.00    -0.097 F 
ATOM      8  F1  UNL d   1       3.383   0.386   0.516  0.00  0.00    -0.096 F 
ATOM      9  I   UNL d   1       1.119   2.580  -0.027  0.00  0.00    -0.060 I 
ATOM     10  F2  UNL d   1      -0.902   1.542   2.227  0.00  0.00    -0.096 F 
ATOM     11  F3  UNL d   1      -0.732  -0.506   3.991  0.00  0.00    -0.097 F 
ATOM     12  F4  UNL d   1       1.473  -2.111   4.033  0.00  0.00    -0.092 F 
ENDROOT
TORSDOF 0
ENDMDL
