MODEL 1
REMARK minimizedAffinity 9.38947678
REMARK minimizedRMSD -1
REMARK  0 active torsions:
REMARK  status: ('A' for Active; 'I' for Inactive)
ROOT
ATOM      1  C   UNL d   1      -0.490   2.738  -1.489  0.00  0.00     0.124 A 
ATOM      2  C1  UNL d   1      -0.448   1.784  -0.482  0.00  0.00     0.062 A 
ATOM      3  C2  UNL d   1       0.388   1.963   0.617  0.00  0.00     0.162 A 
ATOM      4  C3  UNL d   1       1.187   3.101   0.716  0.00  0.00    -0.034 A 
ATOM      5  C4  UNL d   1       1.140   4.056  -0.302  0.00  0.00     0.162 A 
ATOM      6  C5  UNL d   1       0.303   3.873  -1.398  0.00  0.00     0.062 A 
ATOM      7  F   UNL d   1       0.264   4.796  -2.370  0.00  0.00    -0.097 F 
ATOM      8  F1  UNL d   1       1.896   5.162  -0.239  0.00  0.00    -0.096 F 
ATOM      9  I   UNL d   1       2.438   3.372   2.357  0.00  0.00    -0.060 I 
ATOM     10  F2  UNL d   1       0.408   1.024   1.576  0.00  0.00    -0.096 F 
ATOM     11  F3  UNL d   1      -1.213   0.686  -0.567  0.00  0.00    -0.097 F 
ATOM     12  F4  UNL d   1      -1.294   2.563  -2.546  0.00  0.00    -0.092 F 
ENDROOT
TORSDOF 0
ENDMDL
