MODEL 1
REMARK minimizedAffinity 1.00585377
REMARK minimizedRMSD -1
REMARK  0 active torsions:
REMARK  status: ('A' for Active; 'I' for Inactive)
ROOT
ATOM      1  C   UNL d   1       0.764   2.474   0.979  0.00  0.00     0.124 A 
ATOM      2  C1  UNL d   1       1.226   3.763   1.207  0.00  0.00     0.062 A 
ATOM      3  C2  UNL d   1       1.002   4.763   0.266  0.00  0.00     0.162 A 
ATOM      4  C3  UNL d   1       0.312   4.479  -0.913  0.00  0.00    -0.034 A 
ATOM      5  C4  UNL d   1      -0.149   3.180  -1.136  0.00  0.00     0.162 A 
ATOM      6  C5  UNL d   1       0.078   2.184  -0.192  0.00  0.00     0.062 A 
ATOM      7  F   UNL d   1      -0.368   0.939  -0.414  0.00  0.00    -0.097 F 
ATOM      8  F1  UNL d   1      -0.816   2.872  -2.258  0.00  0.00    -0.096 F 
ATOM      9  I   UNL d   1      -0.026   5.972  -2.323  0.00  0.00    -0.060 I 
ATOM     10  F2  UNL d   1       1.459   6.000   0.513  0.00  0.00    -0.096 F 
ATOM     11  F3  UNL d   1       1.890   4.045   2.337  0.00  0.00    -0.097 F 
ATOM     12  F4  UNL d   1       0.982   1.513   1.886  0.00  0.00    -0.092 F 
ENDROOT
TORSDOF 0
ENDMDL
