MODEL 1
REMARK minimizedAffinity 14.8165064
REMARK minimizedRMSD -1
REMARK  0 active torsions:
REMARK  status: ('A' for Active; 'I' for Inactive)
ROOT
ATOM      1  C   UNL d   1       0.434   2.484  -0.853  0.00  0.00     0.124 A 
ATOM      2  C1  UNL d   1      -0.434   2.206   0.194  0.00  0.00     0.062 A 
ATOM      3  C2  UNL d   1      -1.249   3.208   0.712  0.00  0.00     0.162 A 
ATOM      4  C3  UNL d   1      -1.201   4.498   0.183  0.00  0.00    -0.034 A 
ATOM      5  C4  UNL d   1      -0.325   4.770  -0.869  0.00  0.00     0.162 A 
ATOM      6  C5  UNL d   1       0.488   3.765  -1.383  0.00  0.00     0.062 A 
ATOM      7  F   UNL d   1       1.326   4.036  -2.394  0.00  0.00    -0.097 F 
ATOM      8  F1  UNL d   1      -0.253   6.000  -1.401  0.00  0.00    -0.096 F 
ATOM      9  I   UNL d   1      -2.419   5.999   0.955  0.00  0.00    -0.060 I 
ATOM     10  F2  UNL d   1      -2.079   2.911   1.723  0.00  0.00    -0.096 F 
ATOM     11  F3  UNL d   1      -0.487   0.969   0.708  0.00  0.00    -0.097 F 
ATOM     12  F4  UNL d   1       1.218   1.518  -1.349  0.00  0.00    -0.092 F 
ENDROOT
TORSDOF 0
ENDMDL
