MODEL 1
REMARK minimizedAffinity 4.43287516
REMARK minimizedRMSD -1
REMARK  0 active torsions:
REMARK  status: ('A' for Active; 'I' for Inactive)
ROOT
ATOM      1  C   UNL d   1       0.642   2.139   1.187  0.00  0.00     0.124 A 
ATOM      2  C1  UNL d   1      -0.321   2.094   0.189  0.00  0.00     0.062 A 
ATOM      3  C2  UNL d   1      -0.274   2.996  -0.870  0.00  0.00     0.162 A 
ATOM      4  C3  UNL d   1       0.739   3.951  -0.937  0.00  0.00    -0.034 A 
ATOM      5  C4  UNL d   1       1.704   3.992   0.072  0.00  0.00     0.162 A 
ATOM      6  C5  UNL d   1       1.653   3.088   1.128  0.00  0.00     0.062 A 
ATOM      7  F   UNL d   1       2.584   3.134   2.092  0.00  0.00    -0.097 F 
ATOM      8  F1  UNL d   1       2.692   4.898   0.039  0.00  0.00    -0.096 F 
ATOM      9  I   UNL d   1       0.812   5.302  -2.519  0.00  0.00    -0.060 I 
ATOM     10  F2  UNL d   1      -1.218   2.928  -1.821  0.00  0.00    -0.096 F 
ATOM     11  F3  UNL d   1      -1.299   1.178   0.244  0.00  0.00    -0.097 F 
ATOM     12  F4  UNL d   1       0.594   1.271   2.206  0.00  0.00    -0.092 F 
ENDROOT
TORSDOF 0
ENDMDL
