MODEL 1
REMARK minimizedAffinity 9.78267384
REMARK minimizedRMSD -1
REMARK  0 active torsions:
REMARK  status: ('A' for Active; 'I' for Inactive)
ROOT
ATOM      1  C   UNL d   1       0.611   2.000   0.843  0.00  0.00     0.124 A 
ATOM      2  C1  UNL d   1      -0.323   2.021  -0.183  0.00  0.00     0.062 A 
ATOM      3  C2  UNL d   1      -0.319   3.058  -1.111  0.00  0.00     0.162 A 
ATOM      4  C3  UNL d   1       0.622   4.083  -1.018  0.00  0.00    -0.034 A 
ATOM      5  C4  UNL d   1       1.558   4.055   0.018  0.00  0.00     0.162 A 
ATOM      6  C5  UNL d   1       1.550   3.017   0.943  0.00  0.00     0.062 A 
ATOM      7  F   UNL d   1       2.453   2.998   1.934  0.00  0.00    -0.097 F 
ATOM      8  F1  UNL d   1       2.477   5.025   0.137  0.00  0.00    -0.096 F 
ATOM      9  I   UNL d   1       0.631   5.635  -2.404  0.00  0.00    -0.060 I 
ATOM     10  F2  UNL d   1      -1.233   3.053  -2.093  0.00  0.00    -0.096 F 
ATOM     11  F3  UNL d   1      -1.232   1.040  -0.281  0.00  0.00    -0.097 F 
ATOM     12  F4  UNL d   1       0.605   1.001   1.736  0.00  0.00    -0.092 F 
ENDROOT
TORSDOF 0
ENDMDL
