MODEL 1
REMARK minimizedAffinity 9.20156384
REMARK minimizedRMSD -1
REMARK  0 active torsions:
REMARK  status: ('A' for Active; 'I' for Inactive)
ROOT
ATOM      1  C   UNL d   1       0.283   2.375  -0.722  0.00  0.00     0.124 A 
ATOM      2  C1  UNL d   1      -0.523   2.128   0.381  0.00  0.00     0.062 A 
ATOM      3  C2  UNL d   1      -1.353   3.128   0.880  0.00  0.00     0.162 A 
ATOM      4  C3  UNL d   1      -1.381   4.386   0.276  0.00  0.00    -0.034 A 
ATOM      5  C4  UNL d   1      -0.567   4.627  -0.832  0.00  0.00     0.162 A 
ATOM      6  C5  UNL d   1       0.260   3.624  -1.327  0.00  0.00     0.062 A 
ATOM      7  F   UNL d   1       1.039   3.864  -2.392  0.00  0.00    -0.097 F 
ATOM      8  F1  UNL d   1      -0.569   5.824  -1.437  0.00  0.00    -0.096 F 
ATOM      9  I   UNL d   1      -2.620   5.884   1.019  0.00  0.00    -0.060 I 
ATOM     10  F2  UNL d   1      -2.121   2.862   1.946  0.00  0.00    -0.096 F 
ATOM     11  F3  UNL d   1      -0.503   0.923   0.968  0.00  0.00    -0.097 F 
ATOM     12  F4  UNL d   1       1.081   1.411  -1.199  0.00  0.00    -0.092 F 
ENDROOT
TORSDOF 0
ENDMDL
