MODEL 1
REMARK minimizedAffinity 13.5262098
REMARK minimizedRMSD -1
REMARK  0 active torsions:
REMARK  status: ('A' for Active; 'I' for Inactive)
ROOT
ATOM      1  C   UNL d   1       1.411   4.292  -1.292  0.00  0.00     0.124 A 
ATOM      2  C1  UNL d   1       2.305   4.298  -0.231  0.00  0.00     0.062 A 
ATOM      3  C2  UNL d   1       2.193   3.353   0.785  0.00  0.00     0.162 A 
ATOM      4  C3  UNL d   1       1.183   2.392   0.743  0.00  0.00    -0.034 A 
ATOM      5  C4  UNL d   1       0.287   2.392  -0.327  0.00  0.00     0.162 A 
ATOM      6  C5  UNL d   1       0.403   3.339  -1.340  0.00  0.00     0.062 A 
ATOM      7  F   UNL d   1      -0.462   3.331  -2.365  0.00  0.00    -0.097 F 
ATOM      8  F1  UNL d   1      -0.696   1.482  -0.399  0.00  0.00    -0.096 F 
ATOM      9  I   UNL d   1       1.011   0.977   2.260  0.00  0.00    -0.060 I 
ATOM     10  F2  UNL d   1       3.070   3.383   1.799  0.00  0.00    -0.096 F 
ATOM     11  F3  UNL d   1       3.279   5.218  -0.182  0.00  0.00    -0.097 F 
ATOM     12  F4  UNL d   1       1.521   5.203  -2.268  0.00  0.00    -0.092 F 
ENDROOT
TORSDOF 0
ENDMDL
