MODEL 1
REMARK minimizedAffinity 8.71448326
REMARK minimizedRMSD -1
REMARK  0 active torsions:
REMARK  status: ('A' for Active; 'I' for Inactive)
ROOT
ATOM      1  C   UNL d   1       0.438   0.403   2.474  0.00  0.00     0.124 A 
ATOM      2  C1  UNL d   1       1.197   1.565   2.469  0.00  0.00     0.062 A 
ATOM      3  C2  UNL d   1       1.128   2.441   1.390  0.00  0.00     0.162 A 
ATOM      4  C3  UNL d   1       0.295   2.161   0.307  0.00  0.00    -0.034 A 
ATOM      5  C4  UNL d   1      -0.465   0.990   0.319  0.00  0.00     0.162 A 
ATOM      6  C5  UNL d   1      -0.393   0.117   1.400  0.00  0.00     0.062 A 
ATOM      7  F   UNL d   1      -1.128  -1.005   1.403  0.00  0.00    -0.097 F 
ATOM      8  F1  UNL d   1      -1.277   0.689  -0.706  0.00  0.00    -0.096 F 
ATOM      9  I   UNL d   1       0.189   3.469  -1.308  0.00  0.00    -0.060 I 
ATOM     10  F2  UNL d   1       1.874   3.556   1.411  0.00  0.00    -0.096 F 
ATOM     11  F3  UNL d   1       2.001   1.843   3.505  0.00  0.00    -0.097 F 
ATOM     12  F4  UNL d   1       0.507  -0.439   3.513  0.00  0.00    -0.092 F 
ENDROOT
TORSDOF 0
ENDMDL
