MODEL 1
REMARK minimizedAffinity 12.8097553
REMARK minimizedRMSD -1
REMARK  0 active torsions:
REMARK  status: ('A' for Active; 'I' for Inactive)
ROOT
ATOM      1  C   UNL d   1       1.420   2.404   1.325  0.00  0.00     0.124 A 
ATOM      2  C1  UNL d   1       0.448   1.432   1.518  0.00  0.00     0.062 A 
ATOM      3  C2  UNL d   1      -0.544   1.234   0.562  0.00  0.00     0.162 A 
ATOM      4  C3  UNL d   1      -0.568   2.009  -0.597  0.00  0.00    -0.034 A 
ATOM      5  C4  UNL d   1       0.412   2.985  -0.785  0.00  0.00     0.162 A 
ATOM      6  C5  UNL d   1       1.402   3.179   0.174  0.00  0.00     0.062 A 
ATOM      7  F   UNL d   1       2.340   4.118  -0.015  0.00  0.00    -0.097 F 
ATOM      8  F1  UNL d   1       0.419   3.748  -1.888  0.00  0.00    -0.096 F 
ATOM      9  I   UNL d   1      -2.050   1.717  -2.029  0.00  0.00    -0.060 I 
ATOM     10  F2  UNL d   1      -1.471   0.289   0.776  0.00  0.00    -0.096 F 
ATOM     11  F3  UNL d   1       0.463   0.683   2.630  0.00  0.00    -0.097 F 
ATOM     12  F4  UNL d   1       2.373   2.593   2.247  0.00  0.00    -0.092 F 
ENDROOT
TORSDOF 0
ENDMDL
