MODEL 1
REMARK minimizedAffinity 2.87336016
REMARK minimizedRMSD -1
REMARK  0 active torsions:
REMARK  status: ('A' for Active; 'I' for Inactive)
ROOT
ATOM      1  C   UNL d   1       1.655   3.419   1.014  0.00  0.00     0.124 A 
ATOM      2  C1  UNL d   1       1.332   3.901  -0.246  0.00  0.00     0.062 A 
ATOM      3  C2  UNL d   1       0.345   3.276  -1.003  0.00  0.00     0.162 A 
ATOM      4  C3  UNL d   1      -0.328   2.162  -0.501  0.00  0.00    -0.034 A 
ATOM      5  C4  UNL d   1       0.004   1.682   0.767  0.00  0.00     0.162 A 
ATOM      6  C5  UNL d   1       0.991   2.310   1.520  0.00  0.00     0.062 A 
ATOM      7  F   UNL d   1       1.301   1.842   2.737  0.00  0.00    -0.097 F 
ATOM      8  F1  UNL d   1      -0.623   0.613   1.280  0.00  0.00    -0.096 F 
ATOM      9  I   UNL d   1      -1.804   1.225  -1.630  0.00  0.00    -0.060 I 
ATOM     10  F2  UNL d   1       0.053   3.764  -2.218  0.00  0.00    -0.096 F 
ATOM     11  F3  UNL d   1       1.972   4.972  -0.737  0.00  0.00    -0.097 F 
ATOM     12  F4  UNL d   1       2.605   4.021   1.740  0.00  0.00    -0.092 F 
ENDROOT
TORSDOF 0
ENDMDL
