MODEL 1
REMARK minimizedAffinity 7.58714199
REMARK minimizedRMSD -1
REMARK  1 active torsions:
REMARK  status: ('A' for Active; 'I' for Inactive)
REMARK    1  A    between atoms: C1_2  and  C2_3 
ROOT
ATOM      1  C2  UNL d   1       0.756   1.613   2.426  0.00  0.00    -0.076 A 
ATOM      2  C3  UNL d   1      -0.376   1.702   1.598  0.00  0.00     0.004 A 
ATOM      3  C4  UNL d   1      -0.491   2.714   0.647  0.00  0.00    -0.003 A 
ATOM      4  C5  UNL d   1       0.525   3.654   0.508  0.00  0.00     0.000 A 
ATOM      5  C6  UNL d   1       1.663   3.570   1.310  0.00  0.00     0.000 A 
ATOM      6  C7  UNL d   1       1.802   2.546   2.262  0.00  0.00    -0.073 A 
ATOM      7  C8  UNL d   1       3.048   2.508   3.104  0.00  0.00     0.078 C 
ENDROOT
BRANCH   1   8
ATOM      8  C1  UNL d   1       0.813   0.510   3.459  0.00  0.00     0.053 C 
ATOM      9  C   UNL d   1       1.556  -0.719   2.958  0.00  0.00     0.018 C 
ENDBRANCH   1   8
TORSDOF 1
ENDMDL
