MODEL 1
REMARK minimizedAffinity 12.4853849
REMARK minimizedRMSD -1
REMARK  1 active torsions:
REMARK  status: ('A' for Active; 'I' for Inactive)
REMARK    1  A    between atoms: C1_2  and  C2_3 
ROOT
ATOM      1  C2  UNL d   1      -0.939   3.639  -0.178  0.00  0.00    -0.076 A 
ATOM      2  C3  UNL d   1      -1.281   4.823  -0.855  0.00  0.00     0.004 A 
ATOM      3  C4  UNL d   1      -0.299   5.636  -1.419  0.00  0.00    -0.003 A 
ATOM      4  C5  UNL d   1       1.040   5.278  -1.317  0.00  0.00     0.000 A 
ATOM      5  C6  UNL d   1       1.396   4.097  -0.666  0.00  0.00     0.000 A 
ATOM      6  C7  UNL d   1       0.418   3.258  -0.105  0.00  0.00    -0.073 A 
ATOM      7  C8  UNL d   1       0.859   2.000   0.592  0.00  0.00     0.078 C 
ENDROOT
BRANCH   1   8
ATOM      8  C1  UNL d   1      -2.044   2.811   0.437  0.00  0.00     0.053 C 
ATOM      9  C   UNL d   1      -2.691   3.498   1.631  0.00  0.00     0.018 C 
ENDBRANCH   1   8
TORSDOF 1
ENDMDL
