MODEL 1
REMARK minimizedAffinity 12.1637173
REMARK minimizedRMSD -1
REMARK  1 active torsions:
REMARK  status: ('A' for Active; 'I' for Inactive)
REMARK    1  A    between atoms: C1_2  and  C2_3 
ROOT
ATOM      1  C2  UNL d   1      -3.851   2.326  -3.231  0.00  0.00    -0.076 A 
ATOM      2  C3  UNL d   1      -3.226   3.501  -3.683  0.00  0.00     0.004 A 
ATOM      3  C4  UNL d   1      -3.975   4.571  -4.170  0.00  0.00    -0.003 A 
ATOM      4  C5  UNL d   1      -5.362   4.483  -4.211  0.00  0.00     0.000 A 
ATOM      5  C6  UNL d   1      -6.000   3.332  -3.750  0.00  0.00     0.000 A 
ATOM      6  C7  UNL d   1      -5.260   2.250  -3.241  0.00  0.00    -0.073 A 
ATOM      7  C8  UNL d   1      -5.999   1.031  -2.763  0.00  0.00     0.078 C 
ENDROOT
BRANCH   1   8
ATOM      8  C1  UNL d   1      -2.985   1.188  -2.740  0.00  0.00     0.053 C 
ATOM      9  C   UNL d   1      -3.754  -0.118  -2.615  0.00  0.00     0.018 C 
ENDBRANCH   1   8
TORSDOF 1
ENDMDL
