MODEL 1
REMARK minimizedAffinity 13.1622801
REMARK minimizedRMSD -1
REMARK  1 active torsions:
REMARK  status: ('A' for Active; 'I' for Inactive)
REMARK    1  A    between atoms: C1_2  and  C2_3 
ROOT
ATOM      1  C2  UNL d   1      -3.593   4.854  -3.925  0.00  0.00    -0.076 A 
ATOM      2  C3  UNL d   1      -4.808   5.210  -3.314  0.00  0.00     0.004 A 
ATOM      3  C4  UNL d   1      -6.000   5.217  -4.036  0.00  0.00    -0.003 A 
ATOM      4  C5  UNL d   1      -5.996   4.866  -5.382  0.00  0.00     0.000 A 
ATOM      5  C6  UNL d   1      -4.803   4.493  -6.000  0.00  0.00     0.000 A 
ATOM      6  C7  UNL d   1      -3.596   4.465  -5.282  0.00  0.00    -0.073 A 
ATOM      7  C8  UNL d   1      -2.337   4.061  -6.000  0.00  0.00     0.078 C 
ENDROOT
BRANCH   1   8
ATOM      8  C1  UNL d   1      -2.328   4.891  -3.098  0.00  0.00     0.053 C 
ATOM      9  C   UNL d   1      -2.095   3.599  -2.330  0.00  0.00     0.018 C 
ENDBRANCH   1   8
TORSDOF 1
ENDMDL
