MODEL 1
REMARK minimizedAffinity 16.2944527
REMARK minimizedRMSD -1
REMARK  1 active torsions:
REMARK  status: ('A' for Active; 'I' for Inactive)
REMARK    1  A    between atoms: C1_2  and  C2_3 
ROOT
ATOM      1  C2  UNL d   1      -1.195   3.631  -0.729  0.00  0.00    -0.076 A 
ATOM      2  C3  UNL d   1      -1.496   4.752  -1.522  0.00  0.00     0.004 A 
ATOM      3  C4  UNL d   1      -0.485   5.496  -2.126  0.00  0.00    -0.003 A 
ATOM      4  C5  UNL d   1       0.845   5.131  -1.949  0.00  0.00     0.000 A 
ATOM      5  C6  UNL d   1       1.162   4.012  -1.180  0.00  0.00     0.000 A 
ATOM      6  C7  UNL d   1       0.153   3.241  -0.577  0.00  0.00    -0.073 A 
ATOM      7  C8  UNL d   1       0.552   2.047   0.247  0.00  0.00     0.078 C 
ENDROOT
BRANCH   1   8
ATOM      8  C1  UNL d   1      -2.332   2.878  -0.076  0.00  0.00     0.053 C 
ATOM      9  C   UNL d   1      -2.545   3.287   1.373  0.00  0.00     0.018 C 
ENDBRANCH   1   8
TORSDOF 1
ENDMDL
