MODEL 1
REMARK minimizedAffinity 0.823416591
REMARK minimizedRMSD -1
REMARK  1 active torsions:
REMARK  status: ('A' for Active; 'I' for Inactive)
REMARK    1  A    between atoms: C1_2  and  C2_3 
ROOT
ATOM      1  C2  UNL d   1      -3.900   2.781  -4.164  0.00  0.00    -0.076 A 
ATOM      2  C3  UNL d   1      -3.990   4.110  -3.713  0.00  0.00     0.004 A 
ATOM      3  C4  UNL d   1      -4.762   5.048  -4.397  0.00  0.00    -0.003 A 
ATOM      4  C5  UNL d   1      -5.457   4.672  -5.541  0.00  0.00     0.000 A 
ATOM      5  C6  UNL d   1      -5.393   3.354  -5.992  0.00  0.00     0.000 A 
ATOM      6  C7  UNL d   1      -4.632   2.392  -5.306  0.00  0.00    -0.073 A 
ATOM      7  C8  UNL d   1      -4.594   0.987  -5.840  0.00  0.00     0.078 C 
ENDROOT
BRANCH   1   8
ATOM      8  C1  UNL d   1      -3.025   1.815  -3.397  0.00  0.00     0.053 C 
ATOM      9  C   UNL d   1      -3.810   1.001  -2.379  0.00  0.00     0.018 C 
ENDBRANCH   1   8
TORSDOF 1
ENDMDL
