MODEL 1
REMARK minimizedAffinity -2.68366838
REMARK minimizedRMSD -1
REMARK  1 active torsions:
REMARK  status: ('A' for Active; 'I' for Inactive)
REMARK    1  A    between atoms: C1_2  and  C2_3 
ROOT
ATOM      1  C2  UNL d   1      -4.831  -0.100   1.829  0.00  0.00    -0.076 A 
ATOM      2  C3  UNL d   1      -5.817  -1.100   1.892  0.00  0.00     0.004 A 
ATOM      3  C4  UNL d   1      -6.000  -1.856   3.049  0.00  0.00    -0.003 A 
ATOM      4  C5  UNL d   1      -5.200  -1.624   4.162  0.00  0.00     0.000 A 
ATOM      5  C6  UNL d   1      -4.228  -0.624   4.123  0.00  0.00     0.000 A 
ATOM      6  C7  UNL d   1      -4.042   0.158   2.970  0.00  0.00    -0.073 A 
ATOM      7  C8  UNL d   1      -2.975   1.218   2.982  0.00  0.00     0.078 C 
ENDROOT
BRANCH   1   8
ATOM      8  C1  UNL d   1      -4.660   0.669   0.538  0.00  0.00     0.053 C 
ATOM      9  C   UNL d   1      -5.950   0.756  -0.263  0.00  0.00     0.018 C 
ENDBRANCH   1   8
TORSDOF 1
ENDMDL
