MODEL 1
REMARK minimizedAffinity -2.10891747
REMARK minimizedRMSD -1
REMARK  1 active torsions:
REMARK  status: ('A' for Active; 'I' for Inactive)
REMARK    1  A    between atoms: C1_2  and  C2_3 
ROOT
ATOM      1  C2  UNL d   1       0.518  -0.614  -1.704  0.00  0.00    -0.081 A 
ATOM      2  C3  UNL d   1      -0.155   0.479  -1.145  0.00  0.00     0.006 A 
ATOM      3  C4  UNL d   1      -0.044   0.758   0.219  0.00  0.00     0.002 A 
ATOM      4  C5  UNL d   1       0.748  -0.047   1.046  0.00  0.00    -0.080 A 
ATOM      5  C6  UNL d   1       0.901   0.259   2.506  0.00  0.00     0.076 C 
ATOM      6  C7  UNL d   1       1.406  -1.150   0.491  0.00  0.00     0.002 A 
ATOM      7  C8  UNL d   1       1.295  -1.429  -0.873  0.00  0.00     0.006 A 
ENDROOT
BRANCH   1   8
ATOM      8  C1  UNL d   1       0.451  -0.879  -3.186  0.00  0.00     0.054 C 
ATOM      9  C   UNL d   1       1.678  -1.640  -3.668  0.00  0.00     0.018 C 
ENDBRANCH   1   8
TORSDOF 1
ENDMDL
