MODEL 1
REMARK minimizedAffinity -3.35051298
REMARK minimizedRMSD -1
REMARK  1 active torsions:
REMARK  status: ('A' for Active; 'I' for Inactive)
REMARK    1  A    between atoms: C1_2  and  C2_3 
ROOT
ATOM      1  C2  UNL d   1       0.337  -1.011  -1.674  0.00  0.00    -0.081 A 
ATOM      2  C3  UNL d   1      -0.170   0.264  -1.395  0.00  0.00     0.006 A 
ATOM      3  C4  UNL d   1      -0.151   0.764  -0.091  0.00  0.00     0.002 A 
ATOM      4  C5  UNL d   1       0.382   0.001   0.954  0.00  0.00    -0.080 A 
ATOM      5  C6  UNL d   1       0.436   0.538   2.353  0.00  0.00     0.076 C 
ATOM      6  C7  UNL d   1       0.871  -1.280   0.679  0.00  0.00     0.002 A 
ATOM      7  C8  UNL d   1       0.852  -1.781  -0.625  0.00  0.00     0.006 A 
ENDROOT
BRANCH   1   8
ATOM      8  C1  UNL d   1       0.377  -1.527  -3.090  0.00  0.00     0.054 C 
ATOM      9  C   UNL d   1       1.760  -2.050  -3.449  0.00  0.00     0.018 C 
ENDBRANCH   1   8
TORSDOF 1
ENDMDL
