MODEL 1
REMARK minimizedAffinity -3.70967603
REMARK minimizedRMSD -1
REMARK  1 active torsions:
REMARK  status: ('A' for Active; 'I' for Inactive)
REMARK    1  A    between atoms: C1_2  and  C2_3 
ROOT
ATOM      1  C2  UNL d   1      -0.266   0.209   1.809  0.00  0.00    -0.081 A 
ATOM      2  C3  UNL d   1      -1.258   0.305   0.826  0.00  0.00     0.006 A 
ATOM      3  C4  UNL d   1      -0.929   0.180  -0.526  0.00  0.00     0.002 A 
ATOM      4  C5  UNL d   1       0.394  -0.052  -0.917  0.00  0.00    -0.080 A 
ATOM      5  C6  UNL d   1       0.756  -0.219  -2.363  0.00  0.00     0.076 C 
ATOM      6  C7  UNL d   1       1.388  -0.130   0.065  0.00  0.00     0.002 A 
ATOM      7  C8  UNL d   1       1.060  -0.004   1.417  0.00  0.00     0.006 A 
ENDROOT
BRANCH   1   8
ATOM      8  C1  UNL d   1      -0.627   0.280   3.271  0.00  0.00     0.054 C 
ATOM      9  C   UNL d   1      -2.104   0.590   3.462  0.00  0.00     0.018 C 
ENDBRANCH   1   8
TORSDOF 1
ENDMDL
