MODEL 1
REMARK minimizedAffinity -4.94129419
REMARK minimizedRMSD -1
REMARK  1 active torsions:
REMARK  status: ('A' for Active; 'I' for Inactive)
REMARK    1  A    between atoms: C1_2  and  C2_3 
ROOT
ATOM      1  C2  UNL d   1       0.622  -0.605  -1.726  0.00  0.00    -0.081 A 
ATOM      2  C3  UNL d   1       0.368   0.697  -1.276  0.00  0.00     0.006 A 
ATOM      3  C4  UNL d   1       0.405   0.993   0.089  0.00  0.00     0.002 A 
ATOM      4  C5  UNL d   1       0.703  -0.003   1.024  0.00  0.00    -0.080 A 
ATOM      5  C6  UNL d   1       0.776   0.309   2.490  0.00  0.00     0.076 C 
ATOM      6  C7  UNL d   1       0.940  -1.307   0.576  0.00  0.00     0.002 A 
ATOM      7  C8  UNL d   1       0.902  -1.605  -0.788  0.00  0.00     0.006 A 
ENDROOT
BRANCH   1   8
ATOM      8  C1  UNL d   1       0.647  -0.914  -3.201  0.00  0.00     0.054 C 
ATOM      9  C   UNL d   1       1.854  -1.764  -3.568  0.00  0.00     0.018 C 
ENDBRANCH   1   8
TORSDOF 1
ENDMDL
