MODEL 1
REMARK minimizedAffinity -4.79312181
REMARK minimizedRMSD -1
REMARK  1 active torsions:
REMARK  status: ('A' for Active; 'I' for Inactive)
REMARK    1  A    between atoms: C1_2  and  C2_3 
ROOT
ATOM      1  C2  UNL d   1       1.116  -1.122  -1.661  0.00  0.00    -0.081 A 
ATOM      2  C3  UNL d   1       0.035  -0.280  -1.371  0.00  0.00     0.006 A 
ATOM      3  C4  UNL d   1      -0.086   0.308  -0.110  0.00  0.00     0.002 A 
ATOM      4  C5  UNL d   1       0.875   0.072   0.879  0.00  0.00    -0.080 A 
ATOM      5  C6  UNL d   1       0.773   0.721   2.227  0.00  0.00     0.076 C 
ATOM      6  C7  UNL d   1       1.946  -0.782   0.595  0.00  0.00     0.002 A 
ATOM      7  C8  UNL d   1       2.067  -1.372  -0.665  0.00  0.00     0.006 A 
ENDROOT
BRANCH   1   8
ATOM      8  C1  UNL d   1       1.284  -1.706  -3.040  0.00  0.00     0.054 C 
ATOM      9  C   UNL d   1       0.196  -1.215  -3.985  0.00  0.00     0.018 C 
ENDBRANCH   1   8
TORSDOF 1
ENDMDL
