MODEL 1
REMARK minimizedAffinity -2.5491817
REMARK minimizedRMSD -1
REMARK  1 active torsions:
REMARK  status: ('A' for Active; 'I' for Inactive)
REMARK    1  A    between atoms: C1_2  and  C2_3 
ROOT
ATOM      1  C2  UNL d   1       0.832  -0.241  -1.650  0.00  0.00    -0.081 A 
ATOM      2  C3  UNL d   1      -0.337   0.359  -1.168  0.00  0.00     0.006 A 
ATOM      3  C4  UNL d   1      -0.588   0.420   0.205  0.00  0.00     0.002 A 
ATOM      4  C5  UNL d   1       0.329  -0.111   1.118  0.00  0.00    -0.080 A 
ATOM      5  C6  UNL d   1       0.086  -0.026   2.596  0.00  0.00     0.076 C 
ATOM      6  C7  UNL d   1       1.489  -0.727   0.636  0.00  0.00     0.002 A 
ATOM      7  C8  UNL d   1       1.740  -0.789  -0.737  0.00  0.00     0.006 A 
ENDROOT
BRANCH   1   8
ATOM      8  C1  UNL d   1       1.136  -0.251  -3.126  0.00  0.00     0.054 C 
ATOM      9  C   UNL d   1       0.495  -1.447  -3.816  0.00  0.00     0.018 C 
ENDBRANCH   1   8
TORSDOF 1
ENDMDL
