MODEL 1
REMARK minimizedAffinity -1.05947673
REMARK minimizedRMSD -1
REMARK  1 active torsions:
REMARK  status: ('A' for Active; 'I' for Inactive)
REMARK    1  A    between atoms: C1_2  and  C2_3 
ROOT
ATOM      1  C2  UNL d   1       0.355   0.054   1.314  0.00  0.00    -0.081 A 
ATOM      2  C3  UNL d   1       1.162  -0.961   0.787  0.00  0.00     0.006 A 
ATOM      3  C4  UNL d   1       1.337  -1.081  -0.594  0.00  0.00     0.002 A 
ATOM      4  C5  UNL d   1       0.715  -0.184  -1.469  0.00  0.00    -0.080 A 
ATOM      5  C6  UNL d   1       0.919  -0.283  -2.952  0.00  0.00     0.076 C 
ATOM      6  C7  UNL d   1      -0.105   0.820  -0.943  0.00  0.00     0.002 A 
ATOM      7  C8  UNL d   1      -0.281   0.940   0.437  0.00  0.00     0.006 A 
ENDROOT
BRANCH   1   8
ATOM      8  C1  UNL d   1       0.216   0.226   2.805  0.00  0.00     0.054 C 
ATOM      9  C   UNL d   1      -1.166   0.746   3.176  0.00  0.00     0.018 C 
ENDBRANCH   1   8
TORSDOF 1
ENDMDL
