MODEL 1
REMARK minimizedAffinity -0.826191664
REMARK minimizedRMSD -1
REMARK  1 active torsions:
REMARK  status: ('A' for Active; 'I' for Inactive)
REMARK    1  A    between atoms: C1_2  and  C2_3 
ROOT
ATOM      1  C2  UNL d   1       0.605  -0.576  -1.416  0.00  0.00    -0.081 A 
ATOM      2  C3  UNL d   1      -0.127   0.546  -1.005  0.00  0.00     0.006 A 
ATOM      3  C4  UNL d   1      -0.137   0.932   0.337  0.00  0.00     0.002 A 
ATOM      4  C5  UNL d   1       0.589   0.209   1.289  0.00  0.00    -0.080 A 
ATOM      5  C6  UNL d   1       0.611   0.631   2.728  0.00  0.00     0.076 C 
ATOM      6  C7  UNL d   1       1.306  -0.921   0.882  0.00  0.00     0.002 A 
ATOM      7  C8  UNL d   1       1.316  -1.309  -0.460  0.00  0.00     0.006 A 
ENDROOT
BRANCH   1   8
ATOM      8  C1  UNL d   1       0.670  -0.957  -2.873  0.00  0.00     0.054 C 
ATOM      9  C   UNL d   1       1.942  -1.733  -3.185  0.00  0.00     0.018 C 
ENDBRANCH   1   8
TORSDOF 1
ENDMDL
