MODEL 1
REMARK minimizedAffinity -1.65418255
REMARK minimizedRMSD -1
REMARK  1 active torsions:
REMARK  status: ('A' for Active; 'I' for Inactive)
REMARK    1  A    between atoms: C1_2  and  C2_3 
ROOT
ATOM      1  C2  UNL d   1       0.803  -0.035  -1.147  0.00  0.00    -0.081 A 
ATOM      2  C3  UNL d   1      -0.402   0.586  -0.798  0.00  0.00     0.006 A 
ATOM      3  C4  UNL d   1      -0.767   0.720   0.544  0.00  0.00     0.002 A 
ATOM      4  C5  UNL d   1       0.070   0.242   1.558  0.00  0.00    -0.080 A 
ATOM      5  C6  UNL d   1      -0.295   0.406   3.004  0.00  0.00     0.076 C 
ATOM      6  C7  UNL d   1       1.266  -0.395   1.208  0.00  0.00     0.002 A 
ATOM      7  C8  UNL d   1       1.631  -0.529  -0.133  0.00  0.00     0.006 A 
ENDROOT
BRANCH   1   8
ATOM      8  C1  UNL d   1       1.229  -0.123  -2.591  0.00  0.00     0.054 C 
ATOM      9  C   UNL d   1       1.258  -1.566  -3.072  0.00  0.00     0.018 C 
ENDBRANCH   1   8
TORSDOF 1
ENDMDL
