MODEL 1
REMARK minimizedAffinity 5.71705818
REMARK minimizedRMSD -1
REMARK  0 active torsions:
REMARK  status: ('A' for Active; 'I' for Inactive)
ROOT
ATOM      1  C   UNL d   1       2.244  -2.267   3.155  0.00  0.00     0.023 A 
ATOM      2  C1  UNL d   1       2.626  -2.285   4.497  0.00  0.00     0.003 A 
ATOM      3  C2  UNL d   1       2.258  -3.355   5.315  0.00  0.00     0.048 A 
ATOM      4  C3  UNL d   1       1.509  -4.405   4.784  0.00  0.00     0.023 A 
ATOM      5  C4  UNL d   1       1.126  -4.392   3.442  0.00  0.00     0.048 A 
ATOM      6  C5  UNL d   1       1.495  -3.319   2.629  0.00  0.00     0.003 A 
ATOM      7  I   UNL d   1       0.961  -6.000   5.999  0.00  0.00    -0.146 I 
ENDROOT
TORSDOF 0
ENDMDL
