MODEL 1
REMARK minimizedAffinity 8.41213894
REMARK minimizedRMSD -1
REMARK  0 active torsions:
REMARK  status: ('A' for Active; 'I' for Inactive)
ROOT
ATOM      1  C   UNL d   1       1.903  -4.472   2.868  0.00  0.00     0.023 A 
ATOM      2  C1  UNL d   1       0.654  -4.070   3.344  0.00  0.00     0.003 A 
ATOM      3  C2  UNL d   1       0.385  -2.715   3.544  0.00  0.00     0.048 A 
ATOM      4  C3  UNL d   1       1.368  -1.766   3.265  0.00  0.00     0.023 A 
ATOM      5  C4  UNL d   1       2.618  -2.163   2.788  0.00  0.00     0.048 A 
ATOM      6  C5  UNL d   1       2.883  -3.520   2.590  0.00  0.00     0.003 A 
ATOM      7  I   UNL d   1       0.969   0.252   3.562  0.00  0.00    -0.146 I 
ENDROOT
TORSDOF 0
ENDMDL
