MODEL 1
REMARK minimizedAffinity 2.40635753
REMARK minimizedRMSD -1
REMARK  0 active torsions:
REMARK  status: ('A' for Active; 'I' for Inactive)
ROOT
ATOM      1  C   UNL d   1       1.904  -2.085   2.213  0.00  0.00     0.023 A 
ATOM      2  C1  UNL d   1       1.499  -1.553   3.437  0.00  0.00     0.003 A 
ATOM      3  C2  UNL d   1       1.269  -2.398   4.525  0.00  0.00     0.048 A 
ATOM      4  C3  UNL d   1       1.447  -3.774   4.382  0.00  0.00     0.023 A 
ATOM      5  C4  UNL d   1       1.853  -4.310   3.159  0.00  0.00     0.048 A 
ATOM      6  C5  UNL d   1       2.081  -3.461   2.074  0.00  0.00     0.003 A 
ATOM      7  I   UNL d   1       1.104  -5.033   5.999  0.00  0.00    -0.146 I 
ENDROOT
TORSDOF 0
ENDMDL
