MODEL 1
REMARK minimizedAffinity 12.771615
REMARK minimizedRMSD -1
REMARK  0 active torsions:
REMARK  status: ('A' for Active; 'I' for Inactive)
ROOT
ATOM      1  C   UNL d   1       2.837  -4.692   4.378  0.00  0.00     0.023 A 
ATOM      2  C1  UNL d   1       1.670  -4.513   3.634  0.00  0.00     0.003 A 
ATOM      3  C2  UNL d   1       1.433  -3.299   2.986  0.00  0.00     0.048 A 
ATOM      4  C3  UNL d   1       2.367  -2.269   3.085  0.00  0.00     0.023 A 
ATOM      5  C4  UNL d   1       3.537  -2.443   3.827  0.00  0.00     0.048 A 
ATOM      6  C5  UNL d   1       3.769  -3.658   4.474  0.00  0.00     0.003 A 
ATOM      7  I   UNL d   1       2.017  -0.461   2.121  0.00  0.00    -0.146 I 
ENDROOT
TORSDOF 0
ENDMDL
