MODEL 1
REMARK minimizedAffinity 6.50093222
REMARK minimizedRMSD -1
REMARK  0 active torsions:
REMARK  status: ('A' for Active; 'I' for Inactive)
ROOT
ATOM      1  C   UNL d   1       1.821  -3.941   4.231  0.00  0.00     0.023 A 
ATOM      2  C1  UNL d   1       1.709  -2.746   4.941  0.00  0.00     0.003 A 
ATOM      3  C2  UNL d   1       1.812  -1.524   4.273  0.00  0.00     0.048 A 
ATOM      4  C3  UNL d   1       2.026  -1.504   2.895  0.00  0.00     0.023 A 
ATOM      5  C4  UNL d   1       2.137  -2.698   2.181  0.00  0.00     0.048 A 
ATOM      6  C5  UNL d   1       2.034  -3.918   2.852  0.00  0.00     0.003 A 
ATOM      7  I   UNL d   1       2.179   0.314   1.899  0.00  0.00    -0.146 I 
ENDROOT
TORSDOF 0
ENDMDL
