MODEL 1
REMARK minimizedAffinity 11.9165945
REMARK minimizedRMSD -1
REMARK  0 active torsions:
REMARK  status: ('A' for Active; 'I' for Inactive)
ROOT
ATOM      1  C   UNL d   1      -3.191  -2.975  -2.374  0.00  0.00     0.023 A 
ATOM      2  C1  UNL d   1      -3.758  -2.276  -3.440  0.00  0.00     0.003 A 
ATOM      3  C2  UNL d   1      -3.748  -0.879  -3.445  0.00  0.00     0.048 A 
ATOM      4  C3  UNL d   1      -3.168  -0.188  -2.382  0.00  0.00     0.023 A 
ATOM      5  C4  UNL d   1      -2.599  -0.883  -1.313  0.00  0.00     0.048 A 
ATOM      6  C5  UNL d   1      -2.613  -2.280  -1.312  0.00  0.00     0.003 A 
ATOM      7  I   UNL d   1      -3.152   1.890  -2.387  0.00  0.00    -0.146 I 
ENDROOT
TORSDOF 0
ENDMDL
