MODEL 1
REMARK minimizedAffinity 10.0932131
REMARK minimizedRMSD -1
REMARK  0 active torsions:
REMARK  status: ('A' for Active; 'I' for Inactive)
ROOT
ATOM      1  C   UNL d   1       3.053   2.556   2.100  0.00  0.00     0.023 A 
ATOM      2  C1  UNL d   1       3.271   1.680   1.036  0.00  0.00     0.003 A 
ATOM      3  C2  UNL d   1       2.875   0.345   1.137  0.00  0.00     0.048 A 
ATOM      4  C3  UNL d   1       2.262  -0.108   2.305  0.00  0.00     0.023 A 
ATOM      5  C4  UNL d   1       2.041   0.765   3.372  0.00  0.00     0.048 A 
ATOM      6  C5  UNL d   1       2.439   2.099   3.266  0.00  0.00     0.003 A 
ATOM      7  I   UNL d   1       1.672  -2.095   2.458  0.00  0.00    -0.146 I 
ENDROOT
TORSDOF 0
ENDMDL
