MODEL 1
REMARK minimizedAffinity 8.09806728
REMARK minimizedRMSD -1
REMARK  0 active torsions:
REMARK  status: ('A' for Active; 'I' for Inactive)
ROOT
ATOM      1  C   UNL d   1       2.741   2.364   2.726  0.00  0.00     0.023 A 
ATOM      2  C1  UNL d   1       3.067   1.595   1.608  0.00  0.00     0.003 A 
ATOM      3  C2  UNL d   1       2.656   0.263   1.532  0.00  0.00     0.048 A 
ATOM      4  C3  UNL d   1       1.918  -0.294   2.576  0.00  0.00     0.023 A 
ATOM      5  C4  UNL d   1       1.589   0.472   3.696  0.00  0.00     0.048 A 
ATOM      6  C5  UNL d   1       2.003   1.803   3.768  0.00  0.00     0.003 A 
ATOM      7  I   UNL d   1       1.306  -2.277   2.465  0.00  0.00    -0.146 I 
ENDROOT
TORSDOF 0
ENDMDL
