MODEL 1
REMARK minimizedAffinity -1.94787133
REMARK minimizedRMSD -1
REMARK  0 active torsions:
REMARK  status: ('A' for Active; 'I' for Inactive)
ROOT
ATOM      1  C   UNL d   1       0.442  -1.222  -1.464  0.00  0.00     0.124 A 
ATOM      2  C1  UNL d   1      -0.096  -2.079  -0.514  0.00  0.00     0.062 A 
ATOM      3  C2  UNL d   1      -0.910  -1.580   0.498  0.00  0.00     0.162 A 
ATOM      4  C3  UNL d   1      -1.193  -0.215   0.565  0.00  0.00    -0.034 A 
ATOM      5  C4  UNL d   1      -0.647   0.641  -0.394  0.00  0.00     0.162 A 
ATOM      6  C5  UNL d   1       0.166   0.136  -1.403  0.00  0.00     0.062 A 
ATOM      7  F   UNL d   1       0.685   0.966  -2.320  0.00  0.00    -0.097 F 
ATOM      8  F1  UNL d   1      -0.899   1.958  -0.360  0.00  0.00    -0.096 F 
ATOM      9  I   UNL d   1      -2.411   0.536   2.076  0.00  0.00    -0.060 I 
ATOM     10  F2  UNL d   1      -1.417  -2.431   1.403  0.00  0.00    -0.096 F 
ATOM     11  F3  UNL d   1       0.170  -3.392  -0.570  0.00  0.00    -0.097 F 
ATOM     12  F4  UNL d   1       1.227  -1.706  -2.436  0.00  0.00    -0.092 F 
ENDROOT
TORSDOF 0
ENDMDL
