MODEL 1
REMARK minimizedAffinity -3.59669662
REMARK minimizedRMSD -1
REMARK  0 active torsions:
REMARK  status: ('A' for Active; 'I' for Inactive)
ROOT
ATOM      1  C   UNL d   1      -0.696  -1.189   0.685  0.00  0.00     0.124 A 
ATOM      2  C1  UNL d   1      -1.173   0.107   0.828  0.00  0.00     0.062 A 
ATOM      3  C2  UNL d   1      -0.338   1.191   0.575  0.00  0.00     0.162 A 
ATOM      4  C3  UNL d   1       0.982   0.985   0.175  0.00  0.00    -0.034 A 
ATOM      5  C4  UNL d   1       1.455  -0.321   0.034  0.00  0.00     0.162 A 
ATOM      6  C5  UNL d   1       0.617  -1.402   0.288  0.00  0.00     0.062 A 
ATOM      7  F   UNL d   1       1.079  -2.653   0.149  0.00  0.00    -0.097 F 
ATOM      8  F1  UNL d   1       2.719  -0.555  -0.349  0.00  0.00    -0.096 F 
ATOM      9  I   UNL d   1       2.234   2.605  -0.204  0.00  0.00    -0.060 I 
ATOM     10  F2  UNL d   1      -0.825   2.432   0.721  0.00  0.00    -0.096 F 
ATOM     11  F3  UNL d   1      -2.440   0.314   1.212  0.00  0.00    -0.097 F 
ATOM     12  F4  UNL d   1      -1.501  -2.231   0.929  0.00  0.00    -0.092 F 
ENDROOT
TORSDOF 0
ENDMDL
