MODEL 1
REMARK minimizedAffinity 2.62046528
REMARK minimizedRMSD -1
REMARK  0 active torsions:
REMARK  status: ('A' for Active; 'I' for Inactive)
ROOT
ATOM      1  C   UNL d   1       2.224   3.467   0.365  0.00  0.00     0.124 A 
ATOM      2  C1  UNL d   1       0.861   3.209   0.312  0.00  0.00     0.062 A 
ATOM      3  C2  UNL d   1       0.401   1.920   0.062  0.00  0.00     0.162 A 
ATOM      4  C3  UNL d   1       1.305   0.876  -0.137  0.00  0.00    -0.034 A 
ATOM      5  C4  UNL d   1       2.675   1.143  -0.085  0.00  0.00     0.162 A 
ATOM      6  C5  UNL d   1       3.129   2.434   0.166  0.00  0.00     0.062 A 
ATOM      7  F   UNL d   1       4.446   2.681   0.216  0.00  0.00    -0.097 F 
ATOM      8  F1  UNL d   1       3.572   0.164  -0.272  0.00  0.00    -0.096 F 
ATOM      9  I   UNL d   1       0.622  -1.053  -0.512  0.00  0.00    -0.060 I 
ATOM     10  F2  UNL d   1      -0.921   1.700   0.017  0.00  0.00    -0.096 F 
ATOM     11  F3  UNL d   1      -0.016   4.206   0.503  0.00  0.00    -0.097 F 
ATOM     12  F4  UNL d   1       2.663   4.709   0.605  0.00  0.00    -0.092 F 
ENDROOT
TORSDOF 0
ENDMDL
