MODEL 1
REMARK minimizedAffinity 3.48279405
REMARK minimizedRMSD -1
REMARK  0 active torsions:
REMARK  status: ('A' for Active; 'I' for Inactive)
ROOT
ATOM      1  C   UNL d   1      -0.808  -2.583   0.060  0.00  0.00     0.124 A 
ATOM      2  C1  UNL d   1       0.362  -2.153  -0.550  0.00  0.00     0.062 A 
ATOM      3  C2  UNL d   1       0.726  -0.810  -0.497  0.00  0.00     0.162 A 
ATOM      4  C3  UNL d   1      -0.081   0.112   0.170  0.00  0.00    -0.034 A 
ATOM      5  C4  UNL d   1      -1.256  -0.329   0.780  0.00  0.00     0.162 A 
ATOM      6  C5  UNL d   1      -1.616  -1.671   0.724  0.00  0.00     0.062 A 
ATOM      7  F   UNL d   1      -2.747  -2.085   1.314  0.00  0.00    -0.097 F 
ATOM      8  F1  UNL d   1      -2.055   0.531   1.429  0.00  0.00    -0.096 F 
ATOM      9  I   UNL d   1       0.460   2.120   0.251  0.00  0.00    -0.060 I 
ATOM     10  F2  UNL d   1       1.863  -0.423  -1.095  0.00  0.00    -0.096 F 
ATOM     11  F3  UNL d   1       1.144  -3.032  -1.193  0.00  0.00    -0.097 F 
ATOM     12  F4  UNL d   1      -1.156  -3.875   0.007  0.00  0.00    -0.092 F 
ENDROOT
TORSDOF 0
ENDMDL
