MODEL 1
REMARK minimizedAffinity -1.78007913
REMARK minimizedRMSD -1
REMARK  0 active torsions:
REMARK  status: ('A' for Active; 'I' for Inactive)
ROOT
ATOM      1  C   UNL d   1      -0.840  -1.704   1.041  0.00  0.00     0.124 A 
ATOM      2  C1  UNL d   1      -1.132  -0.347   1.026  0.00  0.00     0.062 A 
ATOM      3  C2  UNL d   1      -0.319   0.536   0.321  0.00  0.00     0.162 A 
ATOM      4  C3  UNL d   1       0.793   0.065  -0.376  0.00  0.00    -0.034 A 
ATOM      5  C4  UNL d   1       1.081  -1.301  -0.355  0.00  0.00     0.162 A 
ATOM      6  C5  UNL d   1       0.266  -2.180   0.351  0.00  0.00     0.062 A 
ATOM      7  F   UNL d   1       0.550  -3.490   0.365  0.00  0.00    -0.097 F 
ATOM      8  F1  UNL d   1       2.143  -1.788  -1.014  0.00  0.00    -0.096 F 
ATOM      9  I   UNL d   1       2.011   1.382  -1.432  0.00  0.00    -0.060 I 
ATOM     10  F2  UNL d   1      -0.625   1.842   0.323  0.00  0.00    -0.096 F 
ATOM     11  F3  UNL d   1      -2.199   0.115   1.693  0.00  0.00    -0.097 F 
ATOM     12  F4  UNL d   1      -1.623  -2.551   1.721  0.00  0.00    -0.092 F 
ENDROOT
TORSDOF 0
ENDMDL
