MODEL 1
REMARK minimizedAffinity -2.30883479
REMARK minimizedRMSD -1
REMARK  0 active torsions:
REMARK  status: ('A' for Active; 'I' for Inactive)
ROOT
ATOM      1  C   UNL d   1      -0.284  -2.492   0.032  0.00  0.00     0.124 A 
ATOM      2  C1  UNL d   1       0.463  -1.764  -0.884  0.00  0.00     0.062 A 
ATOM      3  C2  UNL d   1       0.576  -0.383  -0.755  0.00  0.00     0.162 A 
ATOM      4  C3  UNL d   1      -0.059   0.280   0.296  0.00  0.00    -0.034 A 
ATOM      5  C4  UNL d   1      -0.809  -0.459   1.213  0.00  0.00     0.162 A 
ATOM      6  C5  UNL d   1      -0.919  -1.839   1.079  0.00  0.00     0.062 A 
ATOM      7  F   UNL d   1      -1.641  -2.541   1.965  0.00  0.00    -0.097 F 
ATOM      8  F1  UNL d   1      -1.432   0.147   2.234  0.00  0.00    -0.096 F 
ATOM      9  I   UNL d   1       0.108   2.345   0.493  0.00  0.00    -0.060 I 
ATOM     10  F2  UNL d   1       1.304   0.295  -1.654  0.00  0.00    -0.096 F 
ATOM     11  F3  UNL d   1       1.076  -2.392  -1.897  0.00  0.00    -0.097 F 
ATOM     12  F4  UNL d   1      -0.392  -3.821  -0.096  0.00  0.00    -0.092 F 
ENDROOT
TORSDOF 0
ENDMDL
