MODEL 1
REMARK minimizedAffinity -1.03068602
REMARK minimizedRMSD -1
REMARK  0 active torsions:
REMARK  status: ('A' for Active; 'I' for Inactive)
ROOT
ATOM      1  C   UNL d   1       0.257  -2.075  -0.845  0.00  0.00     0.124 A 
ATOM      2  C1  UNL d   1       0.311  -1.671   0.482  0.00  0.00     0.062 A 
ATOM      3  C2  UNL d   1       0.386  -0.318   0.799  0.00  0.00     0.162 A 
ATOM      4  C3  UNL d   1       0.406   0.642  -0.213  0.00  0.00    -0.034 A 
ATOM      5  C4  UNL d   1       0.353   0.228  -1.545  0.00  0.00     0.162 A 
ATOM      6  C5  UNL d   1       0.278  -1.126  -1.856  0.00  0.00     0.062 A 
ATOM      7  F   UNL d   1       0.227  -1.514  -3.139  0.00  0.00    -0.097 F 
ATOM      8  F1  UNL d   1       0.371   1.124  -2.543  0.00  0.00    -0.096 F 
ATOM      9  I   UNL d   1       0.518   2.667   0.257  0.00  0.00    -0.060 I 
ATOM     10  F2  UNL d   1       0.436   0.044   2.090  0.00  0.00    -0.096 F 
ATOM     11  F3  UNL d   1       0.292  -2.586   1.462  0.00  0.00    -0.097 F 
ATOM     12  F4  UNL d   1       0.186  -3.378  -1.147  0.00  0.00    -0.092 F 
ENDROOT
TORSDOF 0
ENDMDL
