MODEL 1
REMARK minimizedAffinity -4.34803438
REMARK minimizedRMSD -1
REMARK  0 active torsions:
REMARK  status: ('A' for Active; 'I' for Inactive)
ROOT
ATOM      1  C   UNL d   1      -0.782  -1.677   1.469  0.00  0.00     0.124 A 
ATOM      2  C1  UNL d   1       0.083  -2.397   0.657  0.00  0.00     0.062 A 
ATOM      3  C2  UNL d   1       0.556  -1.841  -0.528  0.00  0.00     0.162 A 
ATOM      4  C3  UNL d   1       0.166  -0.558  -0.908  0.00  0.00    -0.034 A 
ATOM      5  C4  UNL d   1      -0.706   0.160  -0.087  0.00  0.00     0.162 A 
ATOM      6  C5  UNL d   1      -1.176  -0.400   1.097  0.00  0.00     0.062 A 
ATOM      7  F   UNL d   1      -2.012   0.297   1.880  0.00  0.00    -0.097 F 
ATOM      8  F1  UNL d   1      -1.102   1.397  -0.422  0.00  0.00    -0.096 F 
ATOM      9  I   UNL d   1       0.871   0.277  -2.679  0.00  0.00    -0.060 I 
ATOM     10  F2  UNL d   1       1.392  -2.560  -1.293  0.00  0.00    -0.096 F 
ATOM     11  F3  UNL d   1       0.465  -3.632   1.015  0.00  0.00    -0.097 F 
ATOM     12  F4  UNL d   1      -1.237  -2.215   2.609  0.00  0.00    -0.092 F 
ENDROOT
TORSDOF 0
ENDMDL
