MODEL 1
REMARK minimizedAffinity -1.92147982
REMARK minimizedRMSD -1
REMARK  0 active torsions:
REMARK  status: ('A' for Active; 'I' for Inactive)
ROOT
ATOM      1  C   UNL d   1      -0.786   1.107  -0.315  0.00  0.00     0.124 A 
ATOM      2  C1  UNL d   1      -1.332   0.500   0.807  0.00  0.00     0.062 A 
ATOM      3  C2  UNL d   1      -0.997  -0.813   1.126  0.00  0.00     0.162 A 
ATOM      4  C3  UNL d   1      -0.109  -1.528   0.322  0.00  0.00    -0.034 A 
ATOM      5  C4  UNL d   1       0.436  -0.911  -0.805  0.00  0.00     0.162 A 
ATOM      6  C5  UNL d   1       0.097   0.401  -1.120  0.00  0.00     0.062 A 
ATOM      7  F   UNL d   1       0.626   0.986  -2.205  0.00  0.00    -0.097 F 
ATOM      8  F1  UNL d   1       1.292  -1.569  -1.600  0.00  0.00    -0.096 F 
ATOM      9  I   UNL d   1       0.396  -3.491   0.796  0.00  0.00    -0.060 I 
ATOM     10  F2  UNL d   1      -1.540  -1.374   2.217  0.00  0.00    -0.096 F 
ATOM     11  F3  UNL d   1      -2.187   1.179   1.586  0.00  0.00    -0.097 F 
ATOM     12  F4  UNL d   1      -1.111   2.369  -0.620  0.00  0.00    -0.092 F 
ENDROOT
TORSDOF 0
ENDMDL
