MODEL 1
REMARK minimizedAffinity 0.298878103
REMARK minimizedRMSD -1
REMARK  0 active torsions:
REMARK  status: ('A' for Active; 'I' for Inactive)
ROOT
ATOM      1  C   UNL d   1       0.134  -2.384  -0.463  0.00  0.00     0.124 A 
ATOM      2  C1  UNL d   1      -0.320  -1.944   0.772  0.00  0.00     0.062 A 
ATOM      3  C2  UNL d   1      -0.358  -0.583   1.059  0.00  0.00     0.162 A 
ATOM      4  C3  UNL d   1       0.058   0.349   0.109  0.00  0.00    -0.034 A 
ATOM      5  C4  UNL d   1       0.515  -0.101  -1.131  0.00  0.00     0.162 A 
ATOM      6  C5  UNL d   1       0.552  -1.463  -1.413  0.00  0.00     0.062 A 
ATOM      7  F   UNL d   1       0.991  -1.886  -2.608  0.00  0.00    -0.097 F 
ATOM      8  F1  UNL d   1       0.923   0.768  -2.068  0.00  0.00    -0.096 F 
ATOM      9  I   UNL d   1       0.003   2.386   0.535  0.00  0.00    -0.060 I 
ATOM     10  F2  UNL d   1      -0.802  -0.186   2.261  0.00  0.00    -0.096 F 
ATOM     11  F3  UNL d   1      -0.723  -2.833   1.692  0.00  0.00    -0.097 F 
ATOM     12  F4  UNL d   1       0.171  -3.695  -0.737  0.00  0.00    -0.092 F 
ENDROOT
TORSDOF 0
ENDMDL
