MODEL 1
REMARK minimizedAffinity 1.01505446
REMARK minimizedRMSD -1
REMARK  0 active torsions:
REMARK  status: ('A' for Active; 'I' for Inactive)
ROOT
ATOM      1  C   UNL d   1      -0.053  -0.494  -1.248  0.00  0.00     0.124 A 
ATOM      2  C1  UNL d   1       0.423  -0.732   0.034  0.00  0.00     0.062 A 
ATOM      3  C2  UNL d   1       0.857   0.326   0.827  0.00  0.00     0.162 A 
ATOM      4  C3  UNL d   1       0.818   1.633   0.340  0.00  0.00    -0.034 A 
ATOM      5  C4  UNL d   1       0.339   1.864  -0.951  0.00  0.00     0.162 A 
ATOM      6  C5  UNL d   1      -0.095   0.803  -1.739  0.00  0.00     0.062 A 
ATOM      7  F   UNL d   1      -0.554   1.035  -2.978  0.00  0.00    -0.097 F 
ATOM      8  F1  UNL d   1       0.287   3.108  -1.450  0.00  0.00    -0.096 F 
ATOM      9  I   UNL d   1       1.467   3.218   1.522  0.00  0.00    -0.060 I 
ATOM     10  F2  UNL d   1       1.312   0.067   2.062  0.00  0.00    -0.096 F 
ATOM     11  F3  UNL d   1       0.465  -1.984   0.510  0.00  0.00    -0.097 F 
ATOM     12  F4  UNL d   1      -0.470  -1.514  -2.009  0.00  0.00    -0.092 F 
ENDROOT
TORSDOF 0
ENDMDL
