MODEL 1
REMARK minimizedAffinity -1.17047048
REMARK minimizedRMSD -1
REMARK  0 active torsions:
REMARK  status: ('A' for Active; 'I' for Inactive)
ROOT
ATOM      1  C   UNL d   1      -0.572   1.579  -0.729  0.00  0.00     0.124 A 
ATOM      2  C1  UNL d   1      -0.990   1.161   0.527  0.00  0.00     0.062 A 
ATOM      3  C2  UNL d   1      -0.773  -0.152   0.935  0.00  0.00     0.162 A 
ATOM      4  C3  UNL d   1      -0.133  -1.056   0.087  0.00  0.00    -0.034 A 
ATOM      5  C4  UNL d   1       0.283  -0.628  -1.175  0.00  0.00     0.162 A 
ATOM      6  C5  UNL d   1       0.064   0.685  -1.578  0.00  0.00     0.062 A 
ATOM      7  F   UNL d   1       0.468   1.088  -2.792  0.00  0.00    -0.097 F 
ATOM      8  F1  UNL d   1       0.901  -1.471  -2.016  0.00  0.00    -0.096 F 
ATOM      9  I   UNL d   1       0.193  -3.020   0.693  0.00  0.00    -0.060 I 
ATOM     10  F2  UNL d   1      -1.187  -0.529   2.154  0.00  0.00    -0.096 F 
ATOM     11  F3  UNL d   1      -1.606   2.023   1.349  0.00  0.00    -0.097 F 
ATOM     12  F4  UNL d   1      -0.783   2.843  -1.120  0.00  0.00    -0.092 F 
ENDROOT
TORSDOF 0
ENDMDL
