MODEL 1
REMARK minimizedAffinity 0.715609252
REMARK minimizedRMSD -1
REMARK  0 active torsions:
REMARK  status: ('A' for Active; 'I' for Inactive)
ROOT
ATOM      1  C   UNL d   1       0.378  -1.630  -0.715  0.00  0.00     0.124 A 
ATOM      2  C1  UNL d   1       0.443  -0.644  -1.690  0.00  0.00     0.062 A 
ATOM      3  C2  UNL d   1       0.441   0.700  -1.328  0.00  0.00     0.162 A 
ATOM      4  C3  UNL d   1       0.374   1.066   0.016  0.00  0.00    -0.034 A 
ATOM      5  C4  UNL d   1       0.307   0.069   0.991  0.00  0.00     0.162 A 
ATOM      6  C5  UNL d   1       0.310  -1.273   0.624  0.00  0.00     0.062 A 
ATOM      7  F   UNL d   1       0.247  -2.224   1.567  0.00  0.00    -0.097 F 
ATOM      8  F1  UNL d   1       0.242   0.386   2.293  0.00  0.00    -0.096 F 
ATOM      9  I   UNL d   1       0.369   3.074   0.562  0.00  0.00    -0.060 I 
ATOM     10  F2  UNL d   1       0.504   1.631  -2.291  0.00  0.00    -0.096 F 
ATOM     11  F3  UNL d   1       0.508  -0.987  -2.985  0.00  0.00    -0.097 F 
ATOM     12  F4  UNL d   1       0.380  -2.923  -1.067  0.00  0.00    -0.092 F 
ENDROOT
TORSDOF 0
ENDMDL
