MODEL 1
REMARK minimizedAffinity -0.989200771
REMARK minimizedRMSD -1
REMARK  0 active torsions:
REMARK  status: ('A' for Active; 'I' for Inactive)
ROOT
ATOM      1  C   UNL d   1      -0.346  -1.464   0.031  0.00  0.00     0.124 A 
ATOM      2  C1  UNL d   1      -0.044  -0.490  -0.910  0.00  0.00     0.062 A 
ATOM      3  C2  UNL d   1       0.351   0.780  -0.500  0.00  0.00     0.162 A 
ATOM      4  C3  UNL d   1       0.447   1.083   0.858  0.00  0.00    -0.034 A 
ATOM      5  C4  UNL d   1       0.141   0.098   1.799  0.00  0.00     0.162 A 
ATOM      6  C5  UNL d   1      -0.254  -1.170   1.384  0.00  0.00     0.062 A 
ATOM      7  F   UNL d   1      -0.545  -2.110   2.294  0.00  0.00    -0.097 F 
ATOM      8  F1  UNL d   1       0.223   0.355   3.113  0.00  0.00    -0.096 F 
ATOM      9  I   UNL d   1       1.038   2.981   1.475  0.00  0.00    -0.060 I 
ATOM     10  F2  UNL d   1       0.637   1.703  -1.431  0.00  0.00    -0.096 F 
ATOM     11  F3  UNL d   1      -0.134  -0.771  -2.218  0.00  0.00    -0.097 F 
ATOM     12  F4  UNL d   1      -0.727  -2.685  -0.366  0.00  0.00    -0.092 F 
ENDROOT
TORSDOF 0
ENDMDL
