MODEL 1
REMARK minimizedAffinity 0.143997878
REMARK minimizedRMSD -1
REMARK  0 active torsions:
REMARK  status: ('A' for Active; 'I' for Inactive)
ROOT
ATOM      1  C   UNL d   1      -0.364  -2.223  -0.071  0.00  0.00     0.124 A 
ATOM      2  C1  UNL d   1       0.422  -1.404  -0.870  0.00  0.00     0.062 A 
ATOM      3  C2  UNL d   1       0.589  -0.061  -0.546  0.00  0.00     0.162 A 
ATOM      4  C3  UNL d   1      -0.031   0.472   0.585  0.00  0.00    -0.034 A 
ATOM      5  C4  UNL d   1      -0.821  -0.357   1.383  0.00  0.00     0.162 A 
ATOM      6  C5  UNL d   1      -0.984  -1.699   1.054  0.00  0.00     0.062 A 
ATOM      7  F   UNL d   1      -1.744  -2.489   1.828  0.00  0.00    -0.097 F 
ATOM      8  F1  UNL d   1      -1.431   0.123   2.477  0.00  0.00    -0.096 F 
ATOM      9  I   UNL d   1       0.216   2.480   1.073  0.00  0.00    -0.060 I 
ATOM     10  F2  UNL d   1       1.354   0.707  -1.336  0.00  0.00    -0.096 F 
ATOM     11  F3  UNL d   1       1.022  -1.908  -1.958  0.00  0.00    -0.097 F 
ATOM     12  F4  UNL d   1      -0.523  -3.515  -0.386  0.00  0.00    -0.092 F 
ENDROOT
TORSDOF 0
ENDMDL
