MODEL 1
REMARK minimizedAffinity 2.72029805
REMARK minimizedRMSD -1
REMARK  0 active torsions:
REMARK  status: ('A' for Active; 'I' for Inactive)
ROOT
ATOM      1  C   UNL d   1      -0.275  -1.909   0.215  0.00  0.00     0.124 A 
ATOM      2  C1  UNL d   1      -0.861  -1.361   1.348  0.00  0.00     0.062 A 
ATOM      3  C2  UNL d   1      -0.783   0.009   1.584  0.00  0.00     0.162 A 
ATOM      4  C3  UNL d   1      -0.115   0.840   0.685  0.00  0.00    -0.034 A 
ATOM      5  C4  UNL d   1       0.474   0.282  -0.451  0.00  0.00     0.162 A 
ATOM      6  C5  UNL d   1       0.392  -1.087  -0.682  0.00  0.00     0.062 A 
ATOM      7  F   UNL d   1       0.960  -1.615  -1.777  0.00  0.00    -0.097 F 
ATOM      8  F1  UNL d   1       1.123   1.053  -1.336  0.00  0.00    -0.096 F 
ATOM      9  I   UNL d   1       0.005   2.889   1.034  0.00  0.00    -0.060 I 
ATOM     10  F2  UNL d   1      -1.359   0.511   2.686  0.00  0.00    -0.096 F 
ATOM     11  F3  UNL d   1      -1.505  -2.153   2.217  0.00  0.00    -0.097 F 
ATOM     12  F4  UNL d   1      -0.351  -3.227  -0.009  0.00  0.00    -0.092 F 
ENDROOT
TORSDOF 0
ENDMDL
