MODEL 1
REMARK minimizedAffinity 2.94878864
REMARK minimizedRMSD -1
REMARK  0 active torsions:
REMARK  status: ('A' for Active; 'I' for Inactive)
ROOT
ATOM      1  C   UNL d   1       0.587   2.021  -0.241  0.00  0.00     0.124 A 
ATOM      2  C1  UNL d   1       0.267   1.160  -1.282  0.00  0.00     0.062 A 
ATOM      3  C2  UNL d   1       0.040  -0.190  -1.029  0.00  0.00     0.162 A 
ATOM      4  C3  UNL d   1       0.131  -0.687   0.271  0.00  0.00    -0.034 A 
ATOM      5  C4  UNL d   1       0.454   0.184   1.312  0.00  0.00     0.162 A 
ATOM      6  C5  UNL d   1       0.680   1.533   1.055  0.00  0.00     0.062 A 
ATOM      7  F   UNL d   1       0.989   2.363   2.061  0.00  0.00    -0.097 F 
ATOM      8  F1  UNL d   1       0.550  -0.261   2.574  0.00  0.00    -0.096 F 
ATOM      9  I   UNL d   1      -0.208  -2.705   0.653  0.00  0.00    -0.060 I 
ATOM     10  F2  UNL d   1      -0.267  -0.998  -2.054  0.00  0.00    -0.096 F 
ATOM     11  F3  UNL d   1       0.178   1.629  -2.535  0.00  0.00    -0.097 F 
ATOM     12  F4  UNL d   1       0.806   3.319  -0.487  0.00  0.00    -0.092 F 
ENDROOT
TORSDOF 0
ENDMDL
