MODEL 1
REMARK minimizedAffinity 0.325665832
REMARK minimizedRMSD -1
REMARK  0 active torsions:
REMARK  status: ('A' for Active; 'I' for Inactive)
ROOT
ATOM      1  C   UNL d   1       2.798   3.000   2.641  0.00  0.00     0.078 C 
ATOM      2  C1  UNL d   1       2.410   4.040   3.650  0.00  0.00    -0.077 A 
ATOM      3  C2  UNL d   1       1.088   4.490   3.750  0.00  0.00    -0.001 A 
ATOM      4  C3  UNL d   1       0.744   5.466   4.687  0.00  0.00     0.003 A 
ATOM      5  C4  UNL d   1       1.716   6.000   5.530  0.00  0.00    -0.005 A 
ATOM      6  C5  UNL d   1       3.035   5.560   5.436  0.00  0.00     0.003 A 
ATOM      7  C6  UNL d   1       3.381   4.584   4.500  0.00  0.00    -0.001 A 
ENDROOT
TORSDOF 0
ENDMDL
