MODEL 1
REMARK minimizedAffinity 4.48204756
REMARK minimizedRMSD -1
REMARK  0 active torsions:
REMARK  status: ('A' for Active; 'I' for Inactive)
ROOT
ATOM      1  C   UNL d   1       2.661   3.733   2.243  0.00  0.00     0.078 C 
ATOM      2  C1  UNL d   1       2.515   4.520   3.511  0.00  0.00    -0.077 A 
ATOM      3  C2  UNL d   1       1.354   5.259   3.771  0.00  0.00    -0.001 A 
ATOM      4  C3  UNL d   1       1.236   5.994   4.952  0.00  0.00     0.003 A 
ATOM      5  C4  UNL d   1       2.274   5.998   5.881  0.00  0.00    -0.005 A 
ATOM      6  C5  UNL d   1       3.433   5.267   5.630  0.00  0.00     0.003 A 
ATOM      7  C6  UNL d   1       3.554   4.531   4.450  0.00  0.00    -0.001 A 
ENDROOT
TORSDOF 0
ENDMDL
