MODEL 1
REMARK minimizedAffinity 10.922163
REMARK minimizedRMSD -1
REMARK  0 active torsions:
REMARK  status: ('A' for Active; 'I' for Inactive)
ROOT
ATOM      1  C   UNL d   1       5.454   6.000   5.984  0.00  0.00     0.078 C 
ATOM      2  C1  UNL d   1       4.329   5.203   5.393  0.00  0.00    -0.077 A 
ATOM      3  C2  UNL d   1       4.515   4.447   4.229  0.00  0.00    -0.001 A 
ATOM      4  C3  UNL d   1       3.456   3.718   3.685  0.00  0.00     0.003 A 
ATOM      5  C4  UNL d   1       2.204   3.740   4.297  0.00  0.00    -0.005 A 
ATOM      6  C5  UNL d   1       2.009   4.491   5.454  0.00  0.00     0.003 A 
ATOM      7  C6  UNL d   1       3.067   5.221   5.999  0.00  0.00    -0.001 A 
ENDROOT
TORSDOF 0
ENDMDL
