MODEL 1
REMARK minimizedAffinity -2.46398139
REMARK minimizedRMSD -1
REMARK  0 active torsions:
REMARK  status: ('A' for Active; 'I' for Inactive)
ROOT
ATOM      1  C   UNL d   1       4.342   1.999  -5.965  0.00  0.00     0.078 C 
ATOM      2  C1  UNL d   1       3.727   3.367  -5.968  0.00  0.00    -0.077 A 
ATOM      3  C2  UNL d   1       2.337   3.533  -5.987  0.00  0.00    -0.001 A 
ATOM      4  C3  UNL d   1       1.779   4.812  -6.000  0.00  0.00     0.003 A 
ATOM      5  C4  UNL d   1       2.604   5.935  -5.995  0.00  0.00    -0.005 A 
ATOM      6  C5  UNL d   1       3.988   5.780  -5.978  0.00  0.00     0.003 A 
ATOM      7  C6  UNL d   1       4.548   4.501  -5.965  0.00  0.00    -0.001 A 
ENDROOT
TORSDOF 0
ENDMDL
