MODEL 1
REMARK minimizedAffinity -1.71732128
REMARK minimizedRMSD -1
REMARK  0 active torsions:
REMARK  status: ('A' for Active; 'I' for Inactive)
ROOT
ATOM      1  C   UNL d   1       0.146  -0.502   0.426  0.00  0.00     0.172 C 
ATOM      2  N   UNL d   1      -0.080   0.909   0.218  0.00  0.00    -0.070 N 
ATOM      3  C1  UNL d   1      -0.138   1.861   1.201  0.00  0.00    -0.004 A 
ATOM      4  C2  UNL d   1      -0.368   3.078   0.596  0.00  0.00    -0.047 A 
ATOM      5  C3  UNL d   1      -0.453   2.848  -0.798  0.00  0.00    -0.047 A 
ATOM      6  C4  UNL d   1      -0.271   1.497  -1.004  0.00  0.00    -0.004 A 
ENDROOT
TORSDOF 0
ENDMDL
