MODEL 1
REMARK minimizedAffinity 0.336269349
REMARK minimizedRMSD -1
REMARK  0 active torsions:
REMARK  status: ('A' for Active; 'I' for Inactive)
ROOT
ATOM      1  C   UNL d   1      -5.967   4.868  -3.116  0.00  0.00     0.172 C 
ATOM      2  N   UNL d   1      -5.366   3.820  -2.325  0.00  0.00    -0.070 N 
ATOM      3  C1  UNL d   1      -5.999   2.687  -1.887  0.00  0.00    -0.004 A 
ATOM      4  C2  UNL d   1      -5.087   1.944  -1.170  0.00  0.00    -0.047 A 
ATOM      5  C3  UNL d   1      -3.864   2.655  -1.176  0.00  0.00    -0.047 A 
ATOM      6  C4  UNL d   1      -4.064   3.812  -1.898  0.00  0.00    -0.004 A 
ENDROOT
TORSDOF 0
ENDMDL
