MODEL 1
REMARK minimizedAffinity 2.2841754
REMARK minimizedRMSD -1
REMARK  0 active torsions:
REMARK  status: ('A' for Active; 'I' for Inactive)
ROOT
ATOM      1  C   UNL d   1      -4.958   0.920   3.752  0.00  0.00     0.172 C 
ATOM      2  N   UNL d   1      -5.221  -0.500   3.777  0.00  0.00    -0.070 N 
ATOM      3  C1  UNL d   1      -5.991  -1.185   2.874  0.00  0.00    -0.004 A 
ATOM      4  C2  UNL d   1      -5.993  -2.513   3.243  0.00  0.00    -0.047 A 
ATOM      5  C3  UNL d   1      -5.197  -2.630   4.408  0.00  0.00    -0.047 A 
ATOM      6  C4  UNL d   1      -4.732  -1.369   4.716  0.00  0.00    -0.004 A 
ENDROOT
TORSDOF 0
ENDMDL
