MODEL 1
REMARK minimizedAffinity 2.05565357
REMARK minimizedRMSD -1
REMARK  0 active torsions:
REMARK  status: ('A' for Active; 'I' for Inactive)
ROOT
ATOM      1  C   UNL d   1       1.698   3.840   2.669  0.00  0.00     0.172 C 
ATOM      2  N   UNL d   1       0.930   2.727   2.163  0.00  0.00    -0.070 N 
ATOM      3  C1  UNL d   1       0.393   2.634   0.906  0.00  0.00    -0.004 A 
ATOM      4  C2  UNL d   1      -0.262   1.424   0.816  0.00  0.00    -0.047 A 
ATOM      5  C3  UNL d   1      -0.114   0.769   2.062  0.00  0.00    -0.047 A 
ATOM      6  C4  UNL d   1       0.628   1.598   2.877  0.00  0.00    -0.004 A 
ENDROOT
TORSDOF 0
ENDMDL
