MODEL 1
REMARK minimizedAffinity 1.16293204
REMARK minimizedRMSD -1
REMARK  0 active torsions:
REMARK  status: ('A' for Active; 'I' for Inactive)
ROOT
ATOM      1  C   UNL d   1      -5.999  -2.386   2.364  0.00  0.00     0.172 C 
ATOM      2  N   UNL d   1      -5.983  -2.216   3.798  0.00  0.00    -0.070 N 
ATOM      3  C1  UNL d   1      -6.000  -3.227   4.721  0.00  0.00    -0.004 A 
ATOM      4  C2  UNL d   1      -5.975  -2.654   5.974  0.00  0.00    -0.047 A 
ATOM      5  C3  UNL d   1      -5.944  -1.250   5.798  0.00  0.00    -0.047 A 
ATOM      6  C4  UNL d   1      -5.950  -1.007   4.441  0.00  0.00    -0.004 A 
ENDROOT
TORSDOF 0
ENDMDL
