MODEL 1
REMARK minimizedAffinity 2.21517634
REMARK minimizedRMSD -1
REMARK  0 active torsions:
REMARK  status: ('A' for Active; 'I' for Inactive)
ROOT
ATOM      1  C   UNL d   1      -5.979  -2.644   5.505  0.00  0.00     0.172 C 
ATOM      2  N   UNL d   1      -5.986  -2.309   4.100  0.00  0.00    -0.070 N 
ATOM      3  C1  UNL d   1      -5.986  -1.042   3.582  0.00  0.00    -0.004 A 
ATOM      4  C2  UNL d   1      -5.993  -1.148   2.208  0.00  0.00    -0.047 A 
ATOM      5  C3  UNL d   1      -6.000  -2.527   1.890  0.00  0.00    -0.047 A 
ATOM      6  C4  UNL d   1      -5.995  -3.223   3.080  0.00  0.00    -0.004 A 
ENDROOT
TORSDOF 0
ENDMDL
