MODEL 1
REMARK minimizedAffinity 3.69702458
REMARK minimizedRMSD -1
REMARK  0 active torsions:
REMARK  status: ('A' for Active; 'I' for Inactive)
ROOT
ATOM      1  C   UNL d   1      -0.035   2.375   2.271  0.00  0.00     0.172 C 
ATOM      2  N   UNL d   1       0.327   0.977   2.297  0.00  0.00    -0.070 N 
ATOM      3  C1  UNL d   1       0.632   0.252   3.418  0.00  0.00    -0.004 A 
ATOM      4  C2  UNL d   1       0.920  -1.036   3.021  0.00  0.00    -0.047 A 
ATOM      5  C3  UNL d   1       0.786  -1.086   1.614  0.00  0.00    -0.047 A 
ATOM      6  C4  UNL d   1       0.418   0.174   1.191  0.00  0.00    -0.004 A 
ENDROOT
TORSDOF 0
ENDMDL
