MODEL 1
REMARK minimizedAffinity 1.7988801
REMARK minimizedRMSD -1
REMARK  0 active torsions:
REMARK  status: ('A' for Active; 'I' for Inactive)
ROOT
ATOM      1  C   UNL d   1       0.543   3.602   1.360  0.00  0.00     0.172 C 
ATOM      2  N   UNL d   1       0.462   2.217   1.762  0.00  0.00    -0.070 N 
ATOM      3  C1  UNL d   1       0.491   1.756   3.051  0.00  0.00    -0.004 A 
ATOM      4  C2  UNL d   1       0.388   0.383   3.011  0.00  0.00    -0.047 A 
ATOM      5  C3  UNL d   1       0.295   0.004   1.651  0.00  0.00    -0.047 A 
ATOM      6  C4  UNL d   1       0.343   1.160   0.899  0.00  0.00    -0.004 A 
ENDROOT
TORSDOF 0
ENDMDL
