MODEL 1
REMARK minimizedAffinity 3.03532624
REMARK minimizedRMSD -1
REMARK  0 active torsions:
REMARK  status: ('A' for Active; 'I' for Inactive)
ROOT
ATOM      1  C   UNL d   1       2.516  -5.544   0.305  0.00  0.00     0.172 C 
ATOM      2  N   UNL d   1       1.419  -4.717  -0.140  0.00  0.00    -0.070 N 
ATOM      3  C1  UNL d   1       1.465  -3.361  -0.325  0.00  0.00    -0.004 A 
ATOM      4  C2  UNL d   1       0.221  -2.951  -0.754  0.00  0.00    -0.047 A 
ATOM      5  C3  UNL d   1      -0.601  -4.100  -0.828  0.00  0.00    -0.047 A 
ATOM      6  C4  UNL d   1       0.166  -5.179  -0.443  0.00  0.00    -0.004 A 
ENDROOT
TORSDOF 0
ENDMDL
