MODEL 1
REMARK minimizedAffinity -1.88135111
REMARK minimizedRMSD -1
REMARK  0 active torsions:
REMARK  status: ('A' for Active; 'I' for Inactive)
ROOT
ATOM      1  C   UNL d   1       0.368   3.757  -0.723  0.00  0.00     0.172 C 
ATOM      2  N   UNL d   1       0.345   2.749   0.311  0.00  0.00    -0.070 N 
ATOM      3  C1  UNL d   1       0.282   1.397   0.106  0.00  0.00    -0.004 A 
ATOM      4  C2  UNL d   1       0.281   0.783   1.340  0.00  0.00    -0.047 A 
ATOM      5  C3  UNL d   1       0.344   1.802   2.320  0.00  0.00    -0.047 A 
ATOM      6  C4  UNL d   1       0.383   3.009   1.655  0.00  0.00    -0.004 A 
ENDROOT
TORSDOF 0
ENDMDL
