MODEL 1
REMARK minimizedAffinity -3.4581852
REMARK minimizedRMSD -1
REMARK  1 active torsions:
REMARK  status: ('A' for Active; 'I' for Inactive)
REMARK    1  A    between atoms: C1_2  and  C2_3 
ROOT
ATOM      1  C2  UNL d   1      -0.473   0.421  -0.824  0.00  0.00    -0.077 A 
ATOM      2  C3  UNL d   1       0.688  -0.357  -0.717  0.00  0.00     0.002 A 
ATOM      3  C4  UNL d   1       1.029  -0.954   0.499  0.00  0.00     0.002 A 
ATOM      4  C5  UNL d   1       0.213  -0.782   1.615  0.00  0.00    -0.004 A 
ATOM      5  C6  UNL d   1      -0.943  -0.008   1.519  0.00  0.00     0.002 A 
ATOM      6  C7  UNL d   1      -1.285   0.590   0.305  0.00  0.00     0.002 A 
ENDROOT
BRANCH   1   7
ATOM      7  C1  UNL d   1      -0.869   1.024  -2.146  0.00  0.00     0.055 C 
ATOM      8  C   UNL d   1      -0.815   2.544  -2.099  0.00  0.00     0.019 C 
ENDBRANCH   1   7
TORSDOF 1
ENDMDL
