MODEL 1
REMARK minimizedAffinity -5.02503061
REMARK minimizedRMSD -1
REMARK  1 active torsions:
REMARK  status: ('A' for Active; 'I' for Inactive)
REMARK    1  A    between atoms: C1_2  and  C2_3 
ROOT
ATOM      1  C2  UNL d   1      -0.440  -0.181  -0.096  0.00  0.00    -0.077 A 
ATOM      2  C3  UNL d   1      -1.172  -0.340   1.090  0.00  0.00     0.002 A 
ATOM      3  C4  UNL d   1      -0.514  -0.557   2.302  0.00  0.00     0.002 A 
ATOM      4  C5  UNL d   1       0.878  -0.613   2.341  0.00  0.00    -0.004 A 
ATOM      5  C6  UNL d   1       1.614  -0.457   1.167  0.00  0.00     0.002 A 
ATOM      6  C7  UNL d   1       0.958  -0.241  -0.045  0.00  0.00     0.002 A 
ENDROOT
BRANCH   1   7
ATOM      7  C1  UNL d   1      -1.146   0.103  -1.396  0.00  0.00     0.055 C 
ATOM      8  C   UNL d   1      -1.431   1.589  -1.559  0.00  0.00     0.019 C 
ENDBRANCH   1   7
TORSDOF 1
ENDMDL
