MODEL 1
REMARK minimizedAffinity -5.37243128
REMARK minimizedRMSD -1
REMARK  1 active torsions:
REMARK  status: ('A' for Active; 'I' for Inactive)
REMARK    1  A    between atoms: C1_2  and  C2_3 
ROOT
ATOM      1  C2  UNL d   1      -0.644   0.496  -1.222  0.00  0.00    -0.077 A 
ATOM      2  C3  UNL d   1      -0.198   1.238  -0.119  0.00  0.00     0.002 A 
ATOM      3  C4  UNL d   1       0.668   0.665   0.815  0.00  0.00     0.002 A 
ATOM      4  C5  UNL d   1       1.098  -0.651   0.653  0.00  0.00    -0.004 A 
ATOM      5  C6  UNL d   1       0.659  -1.397  -0.440  0.00  0.00     0.002 A 
ATOM      6  C7  UNL d   1      -0.207  -0.827  -1.373  0.00  0.00     0.002 A 
ENDROOT
BRANCH   1   7
ATOM      7  C1  UNL d   1      -1.538   1.128  -2.256  0.00  0.00     0.055 C 
ATOM      8  C   UNL d   1      -0.994   2.475  -2.710  0.00  0.00     0.019 C 
ENDBRANCH   1   7
TORSDOF 1
ENDMDL
