MODEL 1
REMARK minimizedAffinity -3.73579621
REMARK minimizedRMSD -1
REMARK  1 active torsions:
REMARK  status: ('A' for Active; 'I' for Inactive)
REMARK    1  A    between atoms: C1_2  and  C2_3 
ROOT
ATOM      1  C2  UNL d   1      -0.569   0.741  -1.152  0.00  0.00    -0.077 A 
ATOM      2  C3  UNL d   1      -1.430   0.515  -0.069  0.00  0.00     0.002 A 
ATOM      3  C4  UNL d   1      -0.999  -0.225   1.033  0.00  0.00     0.002 A 
ATOM      4  C5  UNL d   1       0.294  -0.741   1.066  0.00  0.00    -0.004 A 
ATOM      5  C6  UNL d   1       1.158  -0.524  -0.007  0.00  0.00     0.002 A 
ATOM      6  C7  UNL d   1       0.729   0.214  -1.110  0.00  0.00     0.002 A 
ENDROOT
BRANCH   1   7
ATOM      7  C1  UNL d   1      -1.015   1.580  -2.321  0.00  0.00     0.055 C 
ATOM      8  C   UNL d   1       0.080   2.540  -2.763  0.00  0.00     0.019 C 
ENDBRANCH   1   7
TORSDOF 1
ENDMDL
