MODEL 1
REMARK minimizedAffinity 9.4421711
REMARK minimizedRMSD -1
REMARK  0 active torsions:
REMARK  status: ('A' for Active; 'I' for Inactive)
ROOT
ATOM      1  C   UNL d   1       2.570   2.293   4.527  0.00  0.00     0.124 A 
ATOM      2  C1  UNL d   1       2.067   3.584   4.618  0.00  0.00     0.062 A 
ATOM      3  C2  UNL d   1       2.889   4.628   5.034  0.00  0.00     0.162 A 
ATOM      4  C3  UNL d   1       4.223   4.386   5.361  0.00  0.00    -0.034 A 
ATOM      5  C4  UNL d   1       4.722   3.085   5.268  0.00  0.00     0.162 A 
ATOM      6  C5  UNL d   1       3.896   2.045   4.852  0.00  0.00     0.062 A 
ATOM      7  F   UNL d   1       4.384   0.799   4.765  0.00  0.00    -0.097 F 
ATOM      8  F1  UNL d   1       6.000   2.817   5.574  0.00  0.00    -0.096 F 
ATOM      9  I   UNL d   1       5.455   5.944   5.982  0.00  0.00    -0.060 I 
ATOM     10  F2  UNL d   1       2.377   5.865   5.112  0.00  0.00    -0.096 F 
ATOM     11  F3  UNL d   1       0.786   3.826   4.306  0.00  0.00    -0.097 F 
ATOM     12  F4  UNL d   1       1.777   1.291   4.128  0.00  0.00    -0.092 F 
ENDROOT
TORSDOF 0
ENDMDL
