MODEL 1
REMARK minimizedAffinity 30.2402153
REMARK minimizedRMSD -1
REMARK  0 active torsions:
REMARK  status: ('A' for Active; 'I' for Inactive)
ROOT
ATOM      1  C   UNL d   1       3.873   5.036   4.206  0.00  0.00     0.124 A 
ATOM      2  C1  UNL d   1       2.515   5.035   3.921  0.00  0.00     0.062 A 
ATOM      3  C2  UNL d   1       1.968   4.035   3.123  0.00  0.00     0.162 A 
ATOM      4  C3  UNL d   1       2.780   3.026   2.603  0.00  0.00    -0.034 A 
ATOM      5  C4  UNL d   1       4.145   3.035   2.893  0.00  0.00     0.162 A 
ATOM      6  C5  UNL d   1       4.687   4.036   3.692  0.00  0.00     0.062 A 
ATOM      7  F   UNL d   1       6.000   4.036   3.966  0.00  0.00    -0.097 F 
ATOM      8  F1  UNL d   1       4.954   2.080   2.410  0.00  0.00    -0.096 F 
ATOM      9  I   UNL d   1       1.966   1.529   1.408  0.00  0.00    -0.060 I 
ATOM     10  F2  UNL d   1       0.652   4.058   2.864  0.00  0.00    -0.096 F 
ATOM     11  F3  UNL d   1       1.727   6.000   4.416  0.00  0.00    -0.097 F 
ATOM     12  F4  UNL d   1       4.397   6.000   4.974  0.00  0.00    -0.092 F 
ENDROOT
TORSDOF 0
ENDMDL
