MODEL 1
REMARK minimizedAffinity 12.9013548
REMARK minimizedRMSD -1
REMARK  0 active torsions:
REMARK  status: ('A' for Active; 'I' for Inactive)
ROOT
ATOM      1  C   UNL d   1      -0.716   3.227   0.021  0.00  0.00     0.124 A 
ATOM      2  C1  UNL d   1       0.461   3.423   0.729  0.00  0.00     0.062 A 
ATOM      3  C2  UNL d   1       1.344   2.365   0.925  0.00  0.00     0.162 A 
ATOM      4  C3  UNL d   1       1.053   1.101   0.411  0.00  0.00    -0.034 A 
ATOM      5  C4  UNL d   1      -0.133   0.912  -0.299  0.00  0.00     0.162 A 
ATOM      6  C5  UNL d   1      -1.013   1.973  -0.493  0.00  0.00     0.062 A 
ATOM      7  F   UNL d   1      -2.150   1.782  -1.178  0.00  0.00    -0.097 F 
ATOM      8  F1  UNL d   1      -0.444  -0.290  -0.807  0.00  0.00    -0.096 F 
ATOM      9  I   UNL d   1       2.371  -0.483   0.702  0.00  0.00    -0.060 I 
ATOM     10  F2  UNL d   1       2.474   2.583   1.614  0.00  0.00    -0.096 F 
ATOM     11  F3  UNL d   1       0.749   4.634   1.227  0.00  0.00    -0.097 F 
ATOM     12  F4  UNL d   1      -1.565   4.247  -0.166  0.00  0.00    -0.092 F 
ENDROOT
TORSDOF 0
ENDMDL
