MODEL 1
REMARK minimizedAffinity 18.4284058
REMARK minimizedRMSD -1
REMARK  0 active torsions:
REMARK  status: ('A' for Active; 'I' for Inactive)
ROOT
ATOM      1  C   UNL d   1       2.419  -0.109  -0.688  0.00  0.00     0.124 A 
ATOM      2  C1  UNL d   1       1.572  -0.396  -1.749  0.00  0.00     0.062 A 
ATOM      3  C2  UNL d   1       0.193  -0.419  -1.558  0.00  0.00     0.162 A 
ATOM      4  C3  UNL d   1      -0.347  -0.154  -0.299  0.00  0.00    -0.034 A 
ATOM      5  C4  UNL d   1       0.512   0.133   0.763  0.00  0.00     0.162 A 
ATOM      6  C5  UNL d   1       1.889   0.155   0.567  0.00  0.00     0.062 A 
ATOM      7  F   UNL d   1       2.706   0.432   1.593  0.00  0.00    -0.097 F 
ATOM      8  F1  UNL d   1       0.026   0.393   1.986  0.00  0.00    -0.096 F 
ATOM      9  I   UNL d   1      -2.408  -0.188  -0.009  0.00  0.00    -0.060 I 
ATOM     10  F2  UNL d   1      -0.602  -0.700  -2.601  0.00  0.00    -0.096 F 
ATOM     11  F3  UNL d   1       2.082  -0.652  -2.962  0.00  0.00    -0.097 F 
ATOM     12  F4  UNL d   1       3.745  -0.088  -0.875  0.00  0.00    -0.092 F 
ENDROOT
TORSDOF 0
ENDMDL
