MODEL 1
REMARK minimizedAffinity 11.6131248
REMARK minimizedRMSD -1
REMARK  0 active torsions:
REMARK  status: ('A' for Active; 'I' for Inactive)
ROOT
ATOM      1  C   UNL d   1       2.154  -1.903  -0.290  0.00  0.00     0.124 A 
ATOM      2  C1  UNL d   1       2.672  -3.167  -0.038  0.00  0.00     0.062 A 
ATOM      3  C2  UNL d   1       1.840  -4.282  -0.068  0.00  0.00     0.162 A 
ATOM      4  C3  UNL d   1       0.482  -4.140  -0.351  0.00  0.00    -0.034 A 
ATOM      5  C4  UNL d   1      -0.032  -2.866  -0.601  0.00  0.00     0.162 A 
ATOM      6  C5  UNL d   1       0.804  -1.754  -0.571  0.00  0.00     0.062 A 
ATOM      7  F   UNL d   1       0.302  -0.535  -0.814  0.00  0.00    -0.097 F 
ATOM      8  F1  UNL d   1      -1.333  -2.694  -0.877  0.00  0.00    -0.096 F 
ATOM      9  I   UNL d   1      -0.765  -5.806  -0.395  0.00  0.00    -0.060 I 
ATOM     10  F2  UNL d   1       2.367  -5.491   0.179  0.00  0.00    -0.096 F 
ATOM     11  F3  UNL d   1       3.976  -3.313   0.235  0.00  0.00    -0.097 F 
ATOM     12  F4  UNL d   1       2.957  -0.831  -0.260  0.00  0.00    -0.092 F 
ENDROOT
TORSDOF 0
ENDMDL
