MODEL 1
REMARK minimizedAffinity 2.67339969
REMARK minimizedRMSD -1
REMARK  0 active torsions:
REMARK  status: ('A' for Active; 'I' for Inactive)
ROOT
ATOM      1  C   UNL d   1      -2.231   5.694   2.415  0.00  0.00     0.124 A 
ATOM      2  C1  UNL d   1      -1.997   5.812   3.778  0.00  0.00     0.062 A 
ATOM      3  C2  UNL d   1      -3.064   5.871   4.670  0.00  0.00     0.162 A 
ATOM      4  C3  UNL d   1      -4.377   5.812   4.201  0.00  0.00    -0.034 A 
ATOM      5  C4  UNL d   1      -4.605   5.694   2.829  0.00  0.00     0.162 A 
ATOM      6  C5  UNL d   1      -3.534   5.636   1.942  0.00  0.00     0.062 A 
ATOM      7  F   UNL d   1      -3.763   5.522   0.625  0.00  0.00    -0.097 F 
ATOM      8  F1  UNL d   1      -5.854   5.635   2.344  0.00  0.00    -0.096 F 
ATOM      9  I   UNL d   1      -5.975   5.900   5.531  0.00  0.00    -0.060 I 
ATOM     10  F2  UNL d   1      -2.808   5.985   5.981  0.00  0.00    -0.096 F 
ATOM     11  F3  UNL d   1      -0.739   5.870   4.238  0.00  0.00    -0.097 F 
ATOM     12  F4  UNL d   1      -1.203   5.638   1.560  0.00  0.00    -0.092 F 
ENDROOT
TORSDOF 0
ENDMDL
