MODEL 1
REMARK minimizedAffinity 4.21602297
REMARK minimizedRMSD -1
REMARK  0 active torsions:
REMARK  status: ('A' for Active; 'I' for Inactive)
ROOT
ATOM      1  C   UNL d   1      -2.637   0.635  -2.428  0.00  0.00     0.124 A 
ATOM      2  C1  UNL d   1      -2.231  -0.334  -1.521  0.00  0.00     0.062 A 
ATOM      3  C2  UNL d   1      -3.091  -0.751  -0.510  0.00  0.00     0.162 A 
ATOM      4  C3  UNL d   1      -4.368  -0.200  -0.401  0.00  0.00    -0.034 A 
ATOM      5  C4  UNL d   1      -4.770   0.774  -1.316  0.00  0.00     0.162 A 
ATOM      6  C5  UNL d   1      -3.906   1.188  -2.325  0.00  0.00     0.062 A 
ATOM      7  F   UNL d   1      -4.300   2.124  -3.200  0.00  0.00    -0.097 F 
ATOM      8  F1  UNL d   1      -5.991   1.324  -1.240  0.00  0.00    -0.096 F 
ATOM      9  I   UNL d   1      -5.658  -0.822   1.110  0.00  0.00    -0.060 I 
ATOM     10  F2  UNL d   1      -2.672  -1.689   0.353  0.00  0.00    -0.096 F 
ATOM     11  F3  UNL d   1      -1.005  -0.869  -1.618  0.00  0.00    -0.097 F 
ATOM     12  F4  UNL d   1      -1.807   1.035  -3.399  0.00  0.00    -0.092 F 
ENDROOT
TORSDOF 0
ENDMDL
