MODEL 1
REMARK minimizedAffinity 6.25308895
REMARK minimizedRMSD -1
REMARK  1 active torsions:
REMARK  status: ('A' for Active; 'I' for Inactive)
REMARK    1  A    between atoms: C1_2  and  C2_3 
ROOT
ATOM      1  C2  UNL d   1       1.947  -1.718  -0.556  0.00  0.00    -0.081 A 
ATOM      2  C3  UNL d   1       2.043  -2.953   0.096  0.00  0.00     0.006 A 
ATOM      3  C4  UNL d   1       1.095  -3.952  -0.136  0.00  0.00     0.002 A 
ATOM      4  C5  UNL d   1       0.041  -3.737  -1.030  0.00  0.00    -0.080 A 
ATOM      5  C6  UNL d   1      -0.966  -4.812  -1.311  0.00  0.00     0.076 C 
ATOM      6  C7  UNL d   1      -0.066  -2.496  -1.668  0.00  0.00     0.002 A 
ATOM      7  C8  UNL d   1       0.881  -1.496  -1.436  0.00  0.00     0.006 A 
ENDROOT
BRANCH   1   8
ATOM      8  C1  UNL d   1       3.004  -0.661  -0.357  0.00  0.00     0.054 C 
ATOM      9  C   UNL d   1       2.383   0.720  -0.206  0.00  0.00     0.018 C 
ENDBRANCH   1   8
TORSDOF 1
ENDMDL
