MODEL 1
REMARK minimizedAffinity 8.36493111
REMARK minimizedRMSD -1
REMARK  1 active torsions:
REMARK  status: ('A' for Active; 'I' for Inactive)
REMARK    1  A    between atoms: C1_2  and  C2_3 
ROOT
ATOM      1  C2  UNL d   1      -1.724   2.611   1.445  0.00  0.00    -0.081 A 
ATOM      2  C3  UNL d   1      -0.957   1.965   2.423  0.00  0.00     0.006 A 
ATOM      3  C4  UNL d   1       0.432   1.886   2.296  0.00  0.00     0.002 A 
ATOM      4  C5  UNL d   1       1.078   2.458   1.195  0.00  0.00    -0.080 A 
ATOM      5  C6  UNL d   1       2.571   2.406   1.062  0.00  0.00     0.076 C 
ATOM      6  C7  UNL d   1       0.310   3.088   0.209  0.00  0.00     0.002 A 
ATOM      7  C8  UNL d   1      -1.078   3.166   0.335  0.00  0.00     0.006 A 
ENDROOT
BRANCH   1   8
ATOM      8  C1  UNL d   1      -3.215   2.754   1.611  0.00  0.00     0.054 C 
ATOM      9  C   UNL d   1      -3.949   1.520   1.106  0.00  0.00     0.018 C 
ENDBRANCH   1   8
TORSDOF 1
ENDMDL
