MODEL 1
REMARK minimizedAffinity 5.39596653
REMARK minimizedRMSD -1
REMARK  1 active torsions:
REMARK  status: ('A' for Active; 'I' for Inactive)
REMARK    1  A    between atoms: C1_2  and  C2_3 
ROOT
ATOM      1  C2  UNL d   1      -2.096   1.888   1.484  0.00  0.00    -0.081 A 
ATOM      2  C3  UNL d   1      -1.875   3.247   1.739  0.00  0.00     0.006 A 
ATOM      3  C4  UNL d   1      -0.691   3.862   1.325  0.00  0.00     0.002 A 
ATOM      4  C5  UNL d   1       0.287   3.131   0.642  0.00  0.00    -0.080 A 
ATOM      5  C6  UNL d   1       1.549   3.786   0.165  0.00  0.00     0.076 C 
ATOM      6  C7  UNL d   1       0.074   1.769   0.402  0.00  0.00     0.002 A 
ATOM      7  C8  UNL d   1      -1.109   1.154   0.817  0.00  0.00     0.006 A 
ENDROOT
BRANCH   1   8
ATOM      8  C1  UNL d   1      -3.399   1.237   1.872  0.00  0.00     0.054 C 
ATOM      9  C   UNL d   1      -4.312   1.066   0.667  0.00  0.00     0.018 C 
ENDBRANCH   1   8
TORSDOF 1
ENDMDL
