MODEL 1
REMARK minimizedAffinity 6.77324343
REMARK minimizedRMSD -1
REMARK  1 active torsions:
REMARK  status: ('A' for Active; 'I' for Inactive)
REMARK    1  A    between atoms: C1_2  and  C2_3 
ROOT
ATOM      1  C2  UNL d   1       0.745   2.323   1.083  0.00  0.00    -0.081 A 
ATOM      2  C3  UNL d   1       0.334   1.840   2.331  0.00  0.00     0.006 A 
ATOM      3  C4  UNL d   1      -0.931   2.155   2.832  0.00  0.00     0.002 A 
ATOM      4  C5  UNL d   1      -1.810   2.951   2.089  0.00  0.00    -0.080 A 
ATOM      5  C6  UNL d   1      -3.183   3.272   2.601  0.00  0.00     0.076 C 
ATOM      6  C7  UNL d   1      -1.394   3.448   0.850  0.00  0.00     0.002 A 
ATOM      7  C8  UNL d   1      -0.128   3.134   0.349  0.00  0.00     0.006 A 
ENDROOT
BRANCH   1   8
ATOM      8  C1  UNL d   1       2.084   1.932   0.512  0.00  0.00     0.054 C 
ATOM      9  C   UNL d   1       2.116   0.457   0.137  0.00  0.00     0.018 C 
ENDBRANCH   1   8
TORSDOF 1
ENDMDL
