MODEL 1
REMARK minimizedAffinity 2.83462501
REMARK minimizedRMSD -1
REMARK  1 active torsions:
REMARK  status: ('A' for Active; 'I' for Inactive)
REMARK    1  A    between atoms: C1_2  and  C2_3 
ROOT
ATOM      1  C2  UNL d   1       2.235   2.123   2.162  0.00  0.00    -0.081 A 
ATOM      2  C3  UNL d   1       2.579   1.874   0.827  0.00  0.00     0.006 A 
ATOM      3  C4  UNL d   1       1.686   2.176  -0.203  0.00  0.00     0.002 A 
ATOM      4  C5  UNL d   1       0.438   2.740   0.082  0.00  0.00    -0.080 A 
ATOM      5  C6  UNL d   1      -0.518   3.098  -1.017  0.00  0.00     0.076 C 
ATOM      6  C7  UNL d   1       0.087   2.974   1.416  0.00  0.00     0.002 A 
ATOM      7  C8  UNL d   1       0.979   2.671   2.447  0.00  0.00     0.006 A 
ENDROOT
BRANCH   1   8
ATOM      8  C1  UNL d   1       3.221   1.858   3.270  0.00  0.00     0.054 C 
ATOM      9  C   UNL d   1       4.393   2.828   3.212  0.00  0.00     0.018 C 
ENDBRANCH   1   8
TORSDOF 1
ENDMDL
