MODEL 1
REMARK minimizedAffinity 3.74507976
REMARK minimizedRMSD -1
REMARK  1 active torsions:
REMARK  status: ('A' for Active; 'I' for Inactive)
REMARK    1  A    between atoms: C1_2  and  C2_3 
ROOT
ATOM      1  C2  UNL d   1       1.407  -0.233  -0.364  0.00  0.00    -0.081 A 
ATOM      2  C3  UNL d   1       0.282  -0.224  -1.199  0.00  0.00     0.006 A 
ATOM      3  C4  UNL d   1      -0.429  -1.402  -1.441  0.00  0.00     0.002 A 
ATOM      4  C5  UNL d   1      -0.033  -2.605  -0.847  0.00  0.00    -0.080 A 
ATOM      5  C6  UNL d   1      -0.805  -3.871  -1.075  0.00  0.00     0.076 C 
ATOM      6  C7  UNL d   1       1.101  -2.617  -0.028  0.00  0.00     0.002 A 
ATOM      7  C8  UNL d   1       1.813  -1.440   0.214  0.00  0.00     0.006 A 
ENDROOT
BRANCH   1   8
ATOM      8  C1  UNL d   1       2.137   1.047  -0.049  0.00  0.00     0.054 C 
ATOM      9  C   UNL d   1       1.172   2.216   0.088  0.00  0.00     0.018 C 
ENDBRANCH   1   8
TORSDOF 1
ENDMDL
