MODEL 1
REMARK minimizedAffinity 4.94350672
REMARK minimizedRMSD -1
REMARK  1 active torsions:
REMARK  status: ('A' for Active; 'I' for Inactive)
REMARK    1  A    between atoms: C1_2  and  C2_3 
ROOT
ATOM      1  C2  UNL d   1      -2.539   2.623   1.174  0.00  0.00    -0.081 A 
ATOM      2  C3  UNL d   1      -1.713   2.454   0.056  0.00  0.00     0.006 A 
ATOM      3  C4  UNL d   1      -0.346   2.214   0.215  0.00  0.00     0.002 A 
ATOM      4  C5  UNL d   1       0.216   2.130   1.494  0.00  0.00    -0.080 A 
ATOM      5  C6  UNL d   1       1.676   1.843   1.679  0.00  0.00     0.076 C 
ATOM      6  C7  UNL d   1      -0.606   2.317   2.610  0.00  0.00     0.002 A 
ATOM      7  C8  UNL d   1      -1.973   2.558   2.452  0.00  0.00     0.006 A 
ENDROOT
BRANCH   1   8
ATOM      8  C1  UNL d   1      -4.024   2.818   1.007  0.00  0.00     0.054 C 
ATOM      9  C   UNL d   1      -4.686   1.569   0.442  0.00  0.00     0.018 C 
ENDBRANCH   1   8
TORSDOF 1
ENDMDL
