MODEL 1
REMARK minimizedAffinity 5.32817459
REMARK minimizedRMSD -1
REMARK  1 active torsions:
REMARK  status: ('A' for Active; 'I' for Inactive)
REMARK    1  A    between atoms: C1_2  and  C2_3 
ROOT
ATOM      1  C2  UNL d   1       3.524  -0.488  -0.363  0.00  0.00    -0.081 A 
ATOM      2  C3  UNL d   1       4.491   0.152   0.421  0.00  0.00     0.006 A 
ATOM      3  C4  UNL d   1       5.301   1.150  -0.128  0.00  0.00     0.002 A 
ATOM      4  C5  UNL d   1       5.151   1.529  -1.466  0.00  0.00    -0.080 A 
ATOM      5  C6  UNL d   1       5.992   2.619  -2.059  0.00  0.00     0.076 C 
ATOM      6  C7  UNL d   1       4.196   0.877  -2.254  0.00  0.00     0.002 A 
ATOM      7  C8  UNL d   1       3.387  -0.121  -1.706  0.00  0.00     0.006 A 
ENDROOT
BRANCH   1   8
ATOM      8  C1  UNL d   1       2.606  -1.519   0.243  0.00  0.00     0.054 C 
ATOM      9  C   UNL d   1       2.268  -2.615  -0.757  0.00  0.00     0.018 C 
ENDBRANCH   1   8
TORSDOF 1
ENDMDL
