MODEL 1
REMARK minimizedAffinity 4.98578978
REMARK minimizedRMSD -1
REMARK  2 active torsions:
REMARK  status: ('A' for Active; 'I' for Inactive)
REMARK    1  A    between atoms: C2'_3  and  C1'_4 
REMARK    2  A    between atoms: C1'_4  and  C1_5 
ROOT
ATOM      1  C1  I4B d   1      -1.054  -0.815  -0.609  0.00  0.00    -0.075 A 
ATOM      2  C2  I4B d   1      -1.837  -0.417   0.446  0.00  0.00     0.003 A 
ATOM      3  C3  I4B d   1      -3.061  -1.077   0.713  0.00  0.00     0.002 A 
ATOM      4  C4  I4B d   1      -3.484  -2.089  -0.125  0.00  0.00    -0.004 A 
ATOM      5  C5  I4B d   1      -2.678  -2.506  -1.179  0.00  0.00     0.002 A 
ATOM      6  C6  I4B d   1      -1.449  -1.873  -1.416  0.00  0.00     0.003 A 
ENDROOT
BRANCH   1   7
ATOM      7  C1' I4B d   1       0.217  -0.074  -0.882  0.00  0.00     0.060 C 
BRANCH   7   8
ATOM      8  C2' I4B d   1       0.626  -0.360  -2.313  0.00  0.00    -0.013 C 
ATOM      9  C4' I4B d   1      -0.095   0.546  -3.277  0.00  0.00     0.013 C 
ATOM     10  C3' I4B d   1       2.112  -0.185  -2.413  0.00  0.00     0.013 C 
ENDBRANCH   7   8
ENDBRANCH   1   7
TORSDOF 2
ENDMDL
