MODEL 1
REMARK minimizedAffinity 5.69141436
REMARK minimizedRMSD -1
REMARK  2 active torsions:
REMARK  status: ('A' for Active; 'I' for Inactive)
REMARK    1  A    between atoms: C2'_3  and  C1'_4 
REMARK    2  A    between atoms: C1'_4  and  C1_5 
ROOT
ATOM      1  C1  I4B d   1      -0.959  -0.825  -1.123  0.00  0.00    -0.075 A 
ATOM      2  C2  I4B d   1      -1.329  -1.442  -2.292  0.00  0.00     0.003 A 
ATOM      3  C3  I4B d   1      -1.873  -2.749  -2.267  0.00  0.00     0.002 A 
ATOM      4  C4  I4B d   1      -1.982  -3.417  -1.065  0.00  0.00    -0.004 A 
ATOM      5  C5  I4B d   1      -1.628  -2.782   0.122  0.00  0.00     0.002 A 
ATOM      6  C6  I4B d   1      -1.125  -1.473   0.095  0.00  0.00     0.003 A 
ENDROOT
BRANCH   1   7
ATOM      7  C1' I4B d   1      -0.357   0.543  -1.188  0.00  0.00     0.060 C 
BRANCH   7   8
ATOM      8  C2' I4B d   1       0.975   0.501  -0.467  0.00  0.00    -0.013 C 
ATOM      9  C4' I4B d   1       2.025  -0.186  -1.300  0.00  0.00     0.013 C 
ATOM     10  C3' I4B d   1       1.374   1.912  -0.150  0.00  0.00     0.013 C 
ENDBRANCH   7   8
ENDBRANCH   1   7
TORSDOF 2
ENDMDL
