MODEL 1
REMARK minimizedAffinity 1.28275919
REMARK minimizedRMSD -1
REMARK  2 active torsions:
REMARK  status: ('A' for Active; 'I' for Inactive)
REMARK    1  A    between atoms: C2'_3  and  C1'_4 
REMARK    2  A    between atoms: C1'_4  and  C1_5 
ROOT
ATOM      1  C1  I4B d   1      -1.213  -1.225  -0.522  0.00  0.00    -0.075 A 
ATOM      2  C2  I4B d   1      -2.200  -0.598   0.197  0.00  0.00     0.003 A 
ATOM      3  C3  I4B d   1      -3.501  -1.153   0.254  0.00  0.00     0.002 A 
ATOM      4  C4  I4B d   1      -3.784  -2.300  -0.459  0.00  0.00    -0.004 A 
ATOM      5  C5  I4B d   1      -2.776  -2.946  -1.169  0.00  0.00     0.002 A 
ATOM      6  C6  I4B d   1      -1.479  -2.413  -1.191  0.00  0.00     0.003 A 
ENDROOT
BRANCH   1   7
ATOM      7  C1' I4B d   1       0.142  -0.595  -0.589  0.00  0.00     0.060 C 
BRANCH   7   8
ATOM      8  C2' I4B d   1       0.202   0.254  -1.843  0.00  0.00    -0.013 C 
ATOM      9  C4' I4B d   1      -0.854  -0.163  -2.833  0.00  0.00     0.013 C 
ATOM     10  C3' I4B d   1       0.031   1.688  -1.440  0.00  0.00     0.013 C 
ENDBRANCH   7   8
ENDBRANCH   1   7
TORSDOF 2
ENDMDL
