MODEL 1
REMARK minimizedAffinity -0.115446791
REMARK minimizedRMSD -1
REMARK  2 active torsions:
REMARK  status: ('A' for Active; 'I' for Inactive)
REMARK    1  A    between atoms: C2'_3  and  C1'_4 
REMARK    2  A    between atoms: C1'_4  and  C1_5 
ROOT
ATOM      1  C1  I4B d   1      -1.756  -2.770  -0.964  0.00  0.00    -0.075 A 
ATOM      2  C2  I4B d   1      -1.927  -3.935  -1.669  0.00  0.00     0.003 A 
ATOM      3  C3  I4B d   1      -1.824  -3.935  -3.082  0.00  0.00     0.002 A 
ATOM      4  C4  I4B d   1      -1.600  -2.747  -3.747  0.00  0.00    -0.004 A 
ATOM      5  C5  I4B d   1      -1.403  -1.571  -3.029  0.00  0.00     0.002 A 
ATOM      6  C6  I4B d   1      -1.469  -1.584  -1.628  0.00  0.00     0.003 A 
ENDROOT
BRANCH   1   7
ATOM      7  C1' I4B d   1      -1.904  -2.800   0.524  0.00  0.00     0.060 C 
BRANCH   7   8
ATOM      8  C2' I4B d   1      -3.101  -1.946   0.891  0.00  0.00    -0.013 C 
ATOM      9  C4' I4B d   1      -2.715  -0.498   1.033  0.00  0.00     0.013 C 
ATOM     10  C3' I4B d   1      -4.142  -2.127  -0.173  0.00  0.00     0.013 C 
ENDBRANCH   7   8
ENDBRANCH   1   7
TORSDOF 2
ENDMDL
