MODEL 1
REMARK minimizedAffinity 5.4147172
REMARK minimizedRMSD -1
REMARK  2 active torsions:
REMARK  status: ('A' for Active; 'I' for Inactive)
REMARK    1  A    between atoms: C2'_3  and  C1'_4 
REMARK    2  A    between atoms: C1'_4  and  C1_5 
ROOT
ATOM      1  C1  I4B d   1      -1.219  -1.282  -1.174  0.00  0.00    -0.075 A 
ATOM      2  C2  I4B d   1      -1.232  -2.648  -1.311  0.00  0.00     0.003 A 
ATOM      3  C3  I4B d   1      -2.246  -3.417  -0.692  0.00  0.00     0.002 A 
ATOM      4  C4  I4B d   1      -3.192  -2.789   0.093  0.00  0.00    -0.004 A 
ATOM      5  C5  I4B d   1      -3.191  -1.402   0.213  0.00  0.00     0.002 A 
ATOM      6  C6  I4B d   1      -2.205  -0.643  -0.434  0.00  0.00     0.003 A 
ENDROOT
BRANCH   1   7
ATOM      7  C1' I4B d   1      -0.114  -0.504  -1.814  0.00  0.00     0.060 C 
BRANCH   7   8
ATOM      8  C2' I4B d   1      -0.127  -0.809  -3.298  0.00  0.00    -0.013 C 
ATOM      9  C4' I4B d   1      -1.218  -0.046  -4.002  0.00  0.00     0.013 C 
ATOM     10  C3' I4B d   1       1.221  -0.462  -3.855  0.00  0.00     0.013 C 
ENDBRANCH   7   8
ENDBRANCH   1   7
TORSDOF 2
ENDMDL
