MODEL 1
REMARK minimizedAffinity -3.10881376
REMARK minimizedRMSD -1
REMARK  2 active torsions:
REMARK  status: ('A' for Active; 'I' for Inactive)
REMARK    1  A    between atoms: C2'_3  and  C1'_4 
REMARK    2  A    between atoms: C1'_4  and  C1_5 
ROOT
ATOM      1  C1  I4B d   1      -5.332   4.333   4.246  0.00  0.00    -0.075 A 
ATOM      2  C2  I4B d   1      -4.216   4.526   5.021  0.00  0.00     0.003 A 
ATOM      3  C3  I4B d   1      -3.735   3.483   5.849  0.00  0.00     0.002 A 
ATOM      4  C4  I4B d   1      -4.424   2.289   5.908  0.00  0.00    -0.004 A 
ATOM      5  C5  I4B d   1      -5.542   2.087   5.104  0.00  0.00     0.002 A 
ATOM      6  C6  I4B d   1      -5.992   3.111   4.258  0.00  0.00     0.003 A 
ENDROOT
BRANCH   1   7
ATOM      7  C1' I4B d   1      -5.832   5.467   3.408  0.00  0.00     0.060 C 
BRANCH   7   8
ATOM      8  C2' I4B d   1      -5.049   5.469   2.111  0.00  0.00    -0.013 C 
ATOM      9  C4' I4B d   1      -4.430   4.123   1.845  0.00  0.00     0.013 C 
ATOM     10  C3' I4B d   1      -5.985   5.863   1.006  0.00  0.00     0.013 C 
ENDBRANCH   7   8
ENDBRANCH   1   7
TORSDOF 2
ENDMDL
