MODEL 1
REMARK minimizedAffinity 3.662256
REMARK minimizedRMSD -1
REMARK  2 active torsions:
REMARK  status: ('A' for Active; 'I' for Inactive)
REMARK    1  A    between atoms: C2'_3  and  C1'_4 
REMARK    2  A    between atoms: C1'_4  and  C1_5 
ROOT
ATOM      1  C1  I4B d   1      -2.127  -2.333  -1.068  0.00  0.00    -0.075 A 
ATOM      2  C2  I4B d   1      -1.640  -3.584  -0.782  0.00  0.00     0.003 A 
ATOM      3  C3  I4B d   1      -2.338  -4.434   0.110  0.00  0.00     0.002 A 
ATOM      4  C4  I4B d   1      -3.484  -3.977   0.727  0.00  0.00    -0.004 A 
ATOM      5  C5  I4B d   1      -3.989  -2.717   0.419  0.00  0.00     0.002 A 
ATOM      6  C6  I4B d   1      -3.313  -1.894  -0.494  0.00  0.00     0.003 A 
ENDROOT
BRANCH   1   7
ATOM      7  C1' I4B d   1      -1.347  -1.449  -1.989  0.00  0.00     0.060 C 
BRANCH   7   8
ATOM      8  C2' I4B d   1      -0.160  -0.905  -1.220  0.00  0.00    -0.013 C 
ATOM      9  C4' I4B d   1       0.670   0.013  -2.077  0.00  0.00     0.013 C 
ATOM     10  C3' I4B d   1      -0.682  -0.192  -0.008  0.00  0.00     0.013 C 
ENDBRANCH   7   8
ENDBRANCH   1   7
TORSDOF 2
ENDMDL
