MODEL 1
REMARK minimizedAffinity -0.998494089
REMARK minimizedRMSD -1
REMARK  2 active torsions:
REMARK  status: ('A' for Active; 'I' for Inactive)
REMARK    1  A    between atoms: C2'_3  and  C1'_4 
REMARK    2  A    between atoms: C1'_4  and  C1_5 
ROOT
ATOM      1  C1  I4B d   1      -5.059   3.622   3.101  0.00  0.00    -0.075 A 
ATOM      2  C2  I4B d   1      -5.200   3.370   1.759  0.00  0.00     0.003 A 
ATOM      3  C3  I4B d   1      -5.437   4.434   0.855  0.00  0.00     0.002 A 
ATOM      4  C4  I4B d   1      -5.576   5.719   1.339  0.00  0.00    -0.004 A 
ATOM      5  C5  I4B d   1      -5.410   5.975   2.697  0.00  0.00     0.002 A 
ATOM      6  C6  I4B d   1      -5.137   4.922   3.583  0.00  0.00     0.003 A 
ENDROOT
BRANCH   1   7
ATOM      7  C1' I4B d   1      -4.842   2.471   4.032  0.00  0.00     0.060 C 
BRANCH   7   8
ATOM      8  C2' I4B d   1      -5.996   2.440   5.013  0.00  0.00    -0.013 C 
ATOM      9  C4' I4B d   1      -5.906   1.244   5.923  0.00  0.00     0.013 C 
ATOM     10  C3' I4B d   1      -5.974   3.719   5.795  0.00  0.00     0.013 C 
ENDBRANCH   7   8
ENDBRANCH   1   7
TORSDOF 2
ENDMDL
