MODEL 1
REMARK minimizedAffinity 1.61986232
REMARK minimizedRMSD -1
REMARK  2 active torsions:
REMARK  status: ('A' for Active; 'I' for Inactive)
REMARK    1  A    between atoms: C2'_3  and  C1'_4 
REMARK    2  A    between atoms: C1'_4  and  C1_5 
ROOT
ATOM      1  C1  I4B d   1      -5.621   4.003   3.844  0.00  0.00    -0.075 A 
ATOM      2  C2  I4B d   1      -5.999   5.310   3.660  0.00  0.00     0.003 A 
ATOM      3  C3  I4B d   1      -5.842   5.926   2.395  0.00  0.00     0.002 A 
ATOM      4  C4  I4B d   1      -5.262   5.219   1.362  0.00  0.00    -0.004 A 
ATOM      5  C5  I4B d   1      -4.901   3.887   1.543  0.00  0.00     0.002 A 
ATOM      6  C6  I4B d   1      -5.093   3.271   2.789  0.00  0.00     0.003 A 
ENDROOT
BRANCH   1   7
ATOM      7  C1' I4B d   1      -5.770   3.394   5.202  0.00  0.00     0.060 C 
BRANCH   7   8
ATOM      8  C2' I4B d   1      -5.148   2.013   5.165  0.00  0.00    -0.013 C 
ATOM      9  C4' I4B d   1      -3.727   2.041   5.663  0.00  0.00     0.013 C 
ATOM     10  C3' I4B d   1      -5.996   1.101   6.000  0.00  0.00     0.013 C 
ENDBRANCH   7   8
ENDBRANCH   1   7
TORSDOF 2
ENDMDL
