MODEL 1
REMARK minimizedAffinity -1.21268713
REMARK minimizedRMSD -1
REMARK  2 active torsions:
REMARK  status: ('A' for Active; 'I' for Inactive)
REMARK    1  A    between atoms: C2'_3  and  C1'_4 
REMARK    2  A    between atoms: C1'_4  and  C1_5 
ROOT
ATOM      1  C1  I4B d   1      -5.763   4.582   3.882  0.00  0.00    -0.075 A 
ATOM      2  C2  I4B d   1      -5.961   5.710   3.126  0.00  0.00     0.003 A 
ATOM      3  C3  I4B d   1      -5.757   5.673   1.725  0.00  0.00     0.002 A 
ATOM      4  C4  I4B d   1      -5.311   4.509   1.133  0.00  0.00    -0.004 A 
ATOM      5  C5  I4B d   1      -5.133   3.361   1.898  0.00  0.00     0.002 A 
ATOM      6  C6  I4B d   1      -5.372   3.393   3.280  0.00  0.00     0.003 A 
ENDROOT
BRANCH   1   7
ATOM      7  C1' I4B d   1      -5.955   4.665   5.363  0.00  0.00     0.060 C 
BRANCH   7   8
ATOM      8  C2' I4B d   1      -5.203   3.512   5.997  0.00  0.00    -0.013 C 
ATOM      9  C4' I4B d   1      -5.996   2.234   5.915  0.00  0.00     0.013 C 
ATOM     10  C3' I4B d   1      -3.885   3.377   5.295  0.00  0.00     0.013 C 
ENDBRANCH   7   8
ENDBRANCH   1   7
TORSDOF 2
ENDMDL
