MODEL 1
REMARK minimizedAffinity -3.8210516
REMARK minimizedRMSD -1
REMARK  2 active torsions:
REMARK  status: ('A' for Active; 'I' for Inactive)
REMARK    1  A    between atoms: C2'_3  and  C1'_4 
REMARK    2  A    between atoms: C1'_4  and  C1_5 
ROOT
ATOM      1  C1  I4B d   1      -5.843   4.738   3.882  0.00  0.00    -0.075 A 
ATOM      2  C2  I4B d   1      -5.580   5.918   3.233  0.00  0.00     0.003 A 
ATOM      3  C3  I4B d   1      -5.396   5.935   1.829  0.00  0.00     0.002 A 
ATOM      4  C4  I4B d   1      -5.433   4.748   1.125  0.00  0.00    -0.004 A 
ATOM      5  C5  I4B d   1      -5.723   3.555   1.782  0.00  0.00     0.002 A 
ATOM      6  C6  I4B d   1      -5.942   3.551   3.167  0.00  0.00     0.003 A 
ENDROOT
BRANCH   1   7
ATOM      7  C1' I4B d   1      -6.000   4.752   5.370  0.00  0.00     0.060 C 
BRANCH   7   8
ATOM      8  C2' I4B d   1      -5.108   3.670   5.943  0.00  0.00    -0.013 C 
ATOM      9  C4' I4B d   1      -5.757   2.315   5.835  0.00  0.00     0.013 C 
ATOM     10  C3' I4B d   1      -3.803   3.706   5.206  0.00  0.00     0.013 C 
ENDBRANCH   7   8
ENDBRANCH   1   7
TORSDOF 2
ENDMDL
