MODEL 1
REMARK minimizedAffinity 4.52188969
REMARK minimizedRMSD -1
REMARK  2 active torsions:
REMARK  status: ('A' for Active; 'I' for Inactive)
REMARK    1  A    between atoms: C2'_3  and  C1'_4 
REMARK    2  A    between atoms: C1'_4  and  C1_5 
ROOT
ATOM      1  C1  I4B d   1      -1.723  -1.246   0.146  0.00  0.00    -0.075 A 
ATOM      2  C2  I4B d   1      -2.021  -1.635  -1.136  0.00  0.00     0.003 A 
ATOM      3  C3  I4B d   1      -1.096  -1.408  -2.184  0.00  0.00     0.002 A 
ATOM      4  C4  I4B d   1       0.085  -0.747  -1.916  0.00  0.00    -0.004 A 
ATOM      5  C5  I4B d   1       0.396  -0.374  -0.611  0.00  0.00     0.002 A 
ATOM      6  C6  I4B d   1      -0.508  -0.635   0.428  0.00  0.00     0.003 A 
ENDROOT
BRANCH   1   7
ATOM      7  C1' I4B d   1      -2.737  -1.472   1.222  0.00  0.00     0.060 C 
BRANCH   7   8
ATOM      8  C2' I4B d   1      -2.638  -0.323   2.205  0.00  0.00    -0.013 C 
ATOM      9  C4' I4B d   1      -3.732   0.686   1.976  0.00  0.00     0.013 C 
ATOM     10  C3' I4B d   1      -2.708  -0.892   3.591  0.00  0.00     0.013 C 
ENDBRANCH   7   8
ENDBRANCH   1   7
TORSDOF 2
ENDMDL
