MODEL 1
REMARK minimizedAffinity 1.29356611
REMARK minimizedRMSD -1
REMARK  2 active torsions:
REMARK  status: ('A' for Active; 'I' for Inactive)
REMARK    1  A    between atoms: C2'_3  and  C1'_4 
REMARK    2  A    between atoms: C1'_4  and  C1_5 
ROOT
ATOM      1  C1  I4B d   1      -5.983   0.135  -3.733  0.00  0.00    -0.075 A 
ATOM      2  C2  I4B d   1      -5.999   1.423  -3.258  0.00  0.00     0.003 A 
ATOM      3  C3  I4B d   1      -5.994   2.515  -4.159  0.00  0.00     0.002 A 
ATOM      4  C4  I4B d   1      -5.921   2.276  -5.516  0.00  0.00    -0.004 A 
ATOM      5  C5  I4B d   1      -5.928   0.970  -5.996  0.00  0.00     0.002 A 
ATOM      6  C6  I4B d   1      -5.972  -0.108  -5.100  0.00  0.00     0.003 A 
ENDROOT
BRANCH   1   7
ATOM      7  C1' I4B d   1      -5.957  -0.994  -2.752  0.00  0.00     0.060 C 
BRANCH   7   8
ATOM      8  C2' I4B d   1      -4.806  -0.755  -1.796  0.00  0.00    -0.013 C 
ATOM      9  C4' I4B d   1      -5.198  -1.082  -0.379  0.00  0.00     0.013 C 
ATOM     10  C3' I4B d   1      -3.648  -1.596  -2.246  0.00  0.00     0.013 C 
ENDBRANCH   7   8
ENDBRANCH   1   7
TORSDOF 2
ENDMDL
