MODEL 1
REMARK minimizedAffinity 7.79788017
REMARK minimizedRMSD -1
REMARK  2 active torsions:
REMARK  status: ('A' for Active; 'I' for Inactive)
REMARK    1  A    between atoms: C2'_3  and  C1'_4 
REMARK    2  A    between atoms: C1'_4  and  C1_5 
ROOT
ATOM      1  C1  I4B d   1       1.172   4.448  -3.983  0.00  0.00    -0.075 A 
ATOM      2  C2  I4B d   1       1.643   5.259  -4.985  0.00  0.00     0.003 A 
ATOM      3  C3  I4B d   1       0.768   5.723  -5.997  0.00  0.00     0.002 A 
ATOM      4  C4  I4B d   1      -0.550   5.313  -5.997  0.00  0.00    -0.004 A 
ATOM      5  C5  I4B d   1      -1.031   4.509  -4.967  0.00  0.00     0.002 A 
ATOM      6  C6  I4B d   1      -0.168   4.084  -3.947  0.00  0.00     0.003 A 
ENDROOT
BRANCH   1   7
ATOM      7  C1' I4B d   1       2.131   3.950  -2.948  0.00  0.00     0.060 C 
BRANCH   7   8
ATOM      8  C2' I4B d   1       1.467   2.806  -2.209  0.00  0.00    -0.013 C 
ATOM      9  C4' I4B d   1       2.180   1.505  -2.465  0.00  0.00     0.013 C 
ATOM     10  C3' I4B d   1       1.460   3.141  -0.747  0.00  0.00     0.013 C 
ENDBRANCH   7   8
ENDBRANCH   1   7
TORSDOF 2
ENDMDL
