MODEL 1
REMARK minimizedAffinity 2.84068322
REMARK minimizedRMSD -1
REMARK  2 active torsions:
REMARK  status: ('A' for Active; 'I' for Inactive)
REMARK    1  A    between atoms: C2'_3  and  C1'_4 
REMARK    2  A    between atoms: C1'_4  and  C1_5 
ROOT
ATOM      1  C1  I4B d   1      -5.983   2.949  -3.529  0.00  0.00    -0.075 A 
ATOM      2  C2  I4B d   1      -5.985   3.350  -4.842  0.00  0.00     0.003 A 
ATOM      3  C3  I4B d   1      -5.993   2.387  -5.880  0.00  0.00     0.002 A 
ATOM      4  C4  I4B d   1      -5.948   1.045  -5.563  0.00  0.00    -0.004 A 
ATOM      5  C5  I4B d   1      -5.969   0.641  -4.232  0.00  0.00     0.002 A 
ATOM      6  C6  I4B d   1      -5.999   1.598  -3.207  0.00  0.00     0.003 A 
ENDROOT
BRANCH   1   7
ATOM      7  C1' I4B d   1      -5.941   3.992  -2.457  0.00  0.00     0.060 C 
BRANCH   7   8
ATOM      8  C2' I4B d   1      -5.011   3.503  -1.365  0.00  0.00    -0.013 C 
ATOM      9  C4' I4B d   1      -3.935   4.514  -1.072  0.00  0.00     0.013 C 
ATOM     10  C3' I4B d   1      -5.838   3.222  -0.146  0.00  0.00     0.013 C 
ENDBRANCH   7   8
ENDBRANCH   1   7
TORSDOF 2
ENDMDL
