MODEL 1
REMARK minimizedAffinity 9.38046074
REMARK minimizedRMSD -1
REMARK  2 active torsions:
REMARK  status: ('A' for Active; 'I' for Inactive)
REMARK    1  A    between atoms: C2'_3  and  C1'_4 
REMARK    2  A    between atoms: C1'_4  and  C1_5 
ROOT
ATOM      1  C1  I4B d   1      -1.041  -4.777  -0.349  0.00  0.00    -0.075 A 
ATOM      2  C2  I4B d   1      -1.675  -3.855   0.446  0.00  0.00     0.003 A 
ATOM      3  C3  I4B d   1      -0.937  -3.099   1.389  0.00  0.00     0.002 A 
ATOM      4  C4  I4B d   1       0.415  -3.331   1.537  0.00  0.00    -0.004 A 
ATOM      5  C5  I4B d   1       1.061  -4.249   0.714  0.00  0.00     0.002 A 
ATOM      6  C6  I4B d   1       0.331  -4.968  -0.244  0.00  0.00     0.003 A 
ENDROOT
BRANCH   1   7
ATOM      7  C1' I4B d   1      -1.857  -5.582  -1.311  0.00  0.00     0.060 C 
BRANCH   7   8
ATOM      8  C2' I4B d   1      -1.917  -4.823  -2.621  0.00  0.00    -0.013 C 
ATOM      9  C4' I4B d   1      -0.595  -4.870  -3.340  0.00  0.00     0.013 C 
ATOM     10  C3' I4B d   1      -3.009  -5.424  -3.454  0.00  0.00     0.013 C 
ENDBRANCH   7   8
ENDBRANCH   1   7
TORSDOF 2
ENDMDL
