MODEL 1
REMARK minimizedAffinity 10.1841173
REMARK minimizedRMSD -1
REMARK  2 active torsions:
REMARK  status: ('A' for Active; 'I' for Inactive)
REMARK    1  A    between atoms: C2'_3  and  C1'_4 
REMARK    2  A    between atoms: C1'_4  and  C1_5 
ROOT
ATOM      1  C1  I4B d   1       3.295   0.722   1.479  0.00  0.00    -0.075 A 
ATOM      2  C2  I4B d   1       4.166  -0.277   1.121  0.00  0.00     0.003 A 
ATOM      3  C3  I4B d   1       5.537  -0.184   1.464  0.00  0.00     0.002 A 
ATOM      4  C4  I4B d   1       6.000   0.941   2.115  0.00  0.00    -0.004 A 
ATOM      5  C5  I4B d   1       5.111   1.942   2.498  0.00  0.00     0.002 A 
ATOM      6  C6  I4B d   1       3.748   1.826   2.189  0.00  0.00     0.003 A 
ENDROOT
BRANCH   1   7
ATOM      7  C1' I4B d   1       1.860   0.607   1.073  0.00  0.00     0.060 C 
BRANCH   7   8
ATOM      8  C2' I4B d   1       1.474   1.884   0.355  0.00  0.00    -0.013 C 
ATOM      9  C4' I4B d   1       1.043   1.605  -1.060  0.00  0.00     0.013 C 
ATOM     10  C3' I4B d   1       0.376   2.541   1.137  0.00  0.00     0.013 C 
ENDBRANCH   7   8
ENDBRANCH   1   7
TORSDOF 2
ENDMDL
