MODEL 1
REMARK minimizedAffinity 9.34293747
REMARK minimizedRMSD -1
REMARK  2 active torsions:
REMARK  status: ('A' for Active; 'I' for Inactive)
REMARK    1  A    between atoms: C2'_3  and  C1'_4 
REMARK    2  A    between atoms: C1'_4  and  C1_5 
ROOT
ATOM      1  C1  I4B d   1      -0.520  -0.674   3.404  0.00  0.00    -0.075 A 
ATOM      2  C2  I4B d   1      -1.374   0.056   4.193  0.00  0.00     0.003 A 
ATOM      3  C3  I4B d   1      -2.773  -0.021   3.989  0.00  0.00     0.002 A 
ATOM      4  C4  I4B d   1      -3.269  -0.794   2.959  0.00  0.00    -0.004 A 
ATOM      5  C5  I4B d   1      -2.403  -1.551   2.175  0.00  0.00     0.002 A 
ATOM      6  C6  I4B d   1      -1.021  -1.501   2.406  0.00  0.00     0.003 A 
ENDROOT
BRANCH   1   7
ATOM      7  C1' I4B d   1       0.953  -0.545   3.625  0.00  0.00     0.060 C 
BRANCH   7   8
ATOM      8  C2' I4B d   1       1.653  -1.498   2.678  0.00  0.00    -0.013 C 
ATOM      9  C4' I4B d   1       2.748  -0.801   1.914  0.00  0.00     0.013 C 
ATOM     10  C3' I4B d   1       2.198  -2.637   3.487  0.00  0.00     0.013 C 
ENDBRANCH   7   8
ENDBRANCH   1   7
TORSDOF 2
ENDMDL
