MODEL 1
REMARK minimizedAffinity 12.3530273
REMARK minimizedRMSD -1
REMARK  2 active torsions:
REMARK  status: ('A' for Active; 'I' for Inactive)
REMARK    1  A    between atoms: C2'_3  and  C1'_4 
REMARK    2  A    between atoms: C1'_4  and  C1_5 
ROOT
ATOM      1  C1  I4B d   1       2.484   0.447   0.390  0.00  0.00    -0.075 A 
ATOM      2  C2  I4B d   1       3.564  -0.338   0.070  0.00  0.00     0.003 A 
ATOM      3  C3  I4B d   1       3.927  -1.424   0.903  0.00  0.00     0.002 A 
ATOM      4  C4  I4B d   1       3.219  -1.656   2.065  0.00  0.00    -0.004 A 
ATOM      5  C5  I4B d   1       2.111  -0.873   2.376  0.00  0.00     0.002 A 
ATOM      6  C6  I4B d   1       1.733   0.177   1.527  0.00  0.00     0.003 A 
ENDROOT
BRANCH   1   7
ATOM      7  C1' I4B d   1       2.149   1.606  -0.494  0.00  0.00     0.060 C 
BRANCH   7   8
ATOM      8  C2' I4B d   1       2.406   1.188  -1.928  0.00  0.00    -0.013 C 
ATOM      9  C4' I4B d   1       1.312   1.675  -2.842  0.00  0.00     0.013 C 
ATOM     10  C3' I4B d   1       3.739   1.739  -2.338  0.00  0.00     0.013 C 
ENDBRANCH   7   8
ENDBRANCH   1   7
TORSDOF 2
ENDMDL
