MODEL 1
REMARK minimizedAffinity 5.27567005
REMARK minimizedRMSD -1
REMARK  2 active torsions:
REMARK  status: ('A' for Active; 'I' for Inactive)
REMARK    1  A    between atoms: C2'_3  and  C1'_4 
REMARK    2  A    between atoms: C1'_4  and  C1_5 
ROOT
ATOM      1  C1  I4B d   1       2.685   2.034  -2.101  0.00  0.00    -0.075 A 
ATOM      2  C2  I4B d   1       3.853   1.969  -2.819  0.00  0.00     0.003 A 
ATOM      3  C3  I4B d   1       4.135   2.940  -3.811  0.00  0.00     0.002 A 
ATOM      4  C4  I4B d   1       3.204   3.922  -4.084  0.00  0.00    -0.004 A 
ATOM      5  C5  I4B d   1       2.031   4.000  -3.339  0.00  0.00     0.002 A 
ATOM      6  C6  I4B d   1       1.775   3.058  -2.332  0.00  0.00     0.003 A 
ENDROOT
BRANCH   1   7
ATOM      7  C1' I4B d   1       2.404   0.974  -1.084  0.00  0.00     0.060 C 
BRANCH   7   8
ATOM      8  C2' I4B d   1       2.606   1.580   0.290  0.00  0.00    -0.013 C 
ATOM      9  C4' I4B d   1       1.339   1.519   1.104  0.00  0.00     0.013 C 
ATOM     10  C3' I4B d   1       3.719   0.836   0.966  0.00  0.00     0.013 C 
ENDBRANCH   7   8
ENDBRANCH   1   7
TORSDOF 2
ENDMDL
