MODEL 1
REMARK minimizedAffinity 7.41660118
REMARK minimizedRMSD -1
REMARK  2 active torsions:
REMARK  status: ('A' for Active; 'I' for Inactive)
REMARK    1  A    between atoms: C2'_3  and  C1'_4 
REMARK    2  A    between atoms: C1'_4  and  C1_5 
ROOT
ATOM      1  C1  I4B d   1       2.552   1.189   0.576  0.00  0.00    -0.075 A 
ATOM      2  C2  I4B d   1       2.460  -0.181   0.575  0.00  0.00     0.003 A 
ATOM      3  C3  I4B d   1       3.340  -0.955   1.368  0.00  0.00     0.002 A 
ATOM      4  C4  I4B d   1       4.324  -0.326   2.104  0.00  0.00    -0.004 A 
ATOM      5  C5  I4B d   1       4.401   1.064   2.122  0.00  0.00     0.002 A 
ATOM      6  C6  I4B d   1       3.502   1.827   1.363  0.00  0.00     0.003 A 
ENDROOT
BRANCH   1   7
ATOM      7  C1' I4B d   1       1.628   1.974  -0.299  0.00  0.00     0.060 C 
BRANCH   7   8
ATOM      8  C2' I4B d   1       1.873   1.553  -1.734  0.00  0.00    -0.013 C 
ATOM      9  C4' I4B d   1       0.785   2.058  -2.644  0.00  0.00     0.013 C 
ATOM     10  C3' I4B d   1       3.214   2.081  -2.148  0.00  0.00     0.013 C 
ENDBRANCH   7   8
ENDBRANCH   1   7
TORSDOF 2
ENDMDL
