MODEL 1
REMARK minimizedAffinity 0.0487148613
REMARK minimizedRMSD -1
REMARK  2 active torsions:
REMARK  status: ('A' for Active; 'I' for Inactive)
REMARK    1  A    between atoms: C2'_3  and  C1'_4 
REMARK    2  A    between atoms: C1'_4  and  C1_5 
ROOT
ATOM      1  C1  I4B d   1       1.527   2.315  -2.715  0.00  0.00    -0.075 A 
ATOM      2  C2  I4B d   1       0.324   2.734  -3.227  0.00  0.00     0.003 A 
ATOM      3  C3  I4B d   1       0.268   3.860  -4.084  0.00  0.00     0.002 A 
ATOM      4  C4  I4B d   1       1.424   4.561  -4.361  0.00  0.00    -0.004 A 
ATOM      5  C5  I4B d   1       2.645   4.121  -3.860  0.00  0.00     0.002 A 
ATOM      6  C6  I4B d   1       2.700   2.983  -3.041  0.00  0.00     0.003 A 
ENDROOT
BRANCH   1   7
ATOM      7  C1' I4B d   1       1.545   1.142  -1.786  0.00  0.00     0.060 C 
BRANCH   7   8
ATOM      8  C2' I4B d   1       1.381   1.663  -0.373  0.00  0.00    -0.013 C 
ATOM      9  C4' I4B d   1       0.267   0.949   0.345  0.00  0.00     0.013 C 
ATOM     10  C3' I4B d   1       2.687   1.485   0.341  0.00  0.00     0.013 C 
ENDBRANCH   7   8
ENDBRANCH   1   7
TORSDOF 2
ENDMDL
