MODEL 1
REMARK minimizedAffinity 22.6927052
REMARK minimizedRMSD -1
REMARK  2 active torsions:
REMARK  status: ('A' for Active; 'I' for Inactive)
REMARK    1  A    between atoms: C2'_3  and  C1'_4 
REMARK    2  A    between atoms: C1'_4  and  C1_5 
ROOT
ATOM      1  C1  I4B d   1       3.966  -1.810   1.041  0.00  0.00    -0.075 A 
ATOM      2  C2  I4B d   1       5.095  -2.024   1.792  0.00  0.00     0.003 A 
ATOM      3  C3  I4B d   1       6.000  -3.055   1.442  0.00  0.00     0.002 A 
ATOM      4  C4  I4B d   1       5.714  -3.875   0.370  0.00  0.00    -0.004 A 
ATOM      5  C5  I4B d   1       4.581  -3.642  -0.405  0.00  0.00     0.002 A 
ATOM      6  C6  I4B d   1       3.708  -2.595  -0.075  0.00  0.00     0.003 A 
ENDROOT
BRANCH   1   7
ATOM      7  C1' I4B d   1       3.015  -0.734   1.458  0.00  0.00     0.060 C 
BRANCH   7   8
ATOM      8  C2' I4B d   1       3.549   0.587   0.942  0.00  0.00    -0.013 C 
ATOM      9  C4' I4B d   1       2.441   1.592   0.767  0.00  0.00     0.013 C 
ATOM     10  C3' I4B d   1       4.580   1.081   1.913  0.00  0.00     0.013 C 
ENDBRANCH   7   8
ENDBRANCH   1   7
TORSDOF 2
ENDMDL
