MODEL 1
REMARK minimizedAffinity -0.609131455
REMARK minimizedRMSD -1
REMARK  2 active torsions:
REMARK  status: ('A' for Active; 'I' for Inactive)
REMARK    1  A    between atoms: C2'_3  and  C1'_4 
REMARK    2  A    between atoms: C1'_4  and  C1_5 
ROOT
ATOM      1  C1  I4B d   1       2.218   1.981  -1.966  0.00  0.00    -0.075 A 
ATOM      2  C2  I4B d   1       1.316   2.823  -2.567  0.00  0.00     0.003 A 
ATOM      3  C3  I4B d   1       1.695   3.579  -3.703  0.00  0.00     0.002 A 
ATOM      4  C4  I4B d   1       2.991   3.501  -4.170  0.00  0.00    -0.004 A 
ATOM      5  C5  I4B d   1       3.897   2.630  -3.573  0.00  0.00     0.002 A 
ATOM      6  C6  I4B d   1       3.506   1.856  -2.471  0.00  0.00     0.003 A 
ENDROOT
BRANCH   1   7
ATOM      7  C1' I4B d   1       1.794   1.223  -0.748  0.00  0.00     0.060 C 
BRANCH   7   8
ATOM      8  C2' I4B d   1       1.592   2.219   0.376  0.00  0.00    -0.013 C 
ATOM      9  C4' I4B d   1       0.378   1.875   1.197  0.00  0.00     0.013 C 
ATOM     10  C3' I4B d   1       2.832   2.223   1.219  0.00  0.00     0.013 C 
ENDBRANCH   7   8
ENDBRANCH   1   7
TORSDOF 2
ENDMDL
