MODEL 1
REMARK minimizedAffinity -3.42756844
REMARK minimizedRMSD -1
REMARK  1 active torsions:
REMARK  status: ('A' for Active; 'I' for Inactive)
REMARK    1  A    between atoms: N_2  and  C1_3 
ROOT
ATOM      1  C1  UNL d   1       1.306   1.274   0.649  0.00  0.00     0.143 A 
ATOM      2  C2  UNL d   1       2.304   1.143   1.621  0.00  0.00    -0.057 A 
ATOM      3  C3  UNL d   1       3.170   2.202   1.921  0.00  0.00     0.033 A 
ATOM      4  C4  UNL d   1       3.071   3.406   1.231  0.00  0.00    -0.042 A 
ATOM      5  C5  UNL d   1       2.102   3.550   0.243  0.00  0.00     0.033 A 
ATOM      6  C6  UNL d   1       1.237   2.492  -0.047  0.00  0.00    -0.057 A 
ENDROOT
BRANCH   1   7
ATOM      7  N   UNL d   1       0.479   0.227   0.237  0.00  0.00    -0.732 N 
ATOM      8  C   UNL d   1      -0.316   0.345  -0.966  0.00  0.00     0.284 C 
ATOM      9  H3  UNL d   1       0.916  -0.684   0.359  0.00  0.00     0.395 HD
ENDBRANCH   1   7
TORSDOF 1
ENDMDL
