MODEL 1
REMARK minimizedAffinity -4.31092596
REMARK minimizedRMSD -1
REMARK  1 active torsions:
REMARK  status: ('A' for Active; 'I' for Inactive)
REMARK    1  A    between atoms: N_2  and  C1_3 
ROOT
ATOM      1  C1  UNL d   1      -0.865  -0.520  -0.022  0.00  0.00     0.143 A 
ATOM      2  C2  UNL d   1      -2.060  -0.597  -0.744  0.00  0.00    -0.057 A 
ATOM      3  C3  UNL d   1      -2.996  -1.608  -0.496  0.00  0.00     0.033 A 
ATOM      4  C4  UNL d   1      -2.738  -2.582   0.464  0.00  0.00    -0.042 A 
ATOM      5  C5  UNL d   1      -1.545  -2.540   1.177  0.00  0.00     0.033 A 
ATOM      6  C6  UNL d   1      -0.618  -1.524   0.928  0.00  0.00    -0.057 A 
ENDROOT
BRANCH   1   7
ATOM      7  N   UNL d   1       0.149   0.403  -0.290  0.00  0.00    -0.732 N 
ATOM      8  C   UNL d   1       1.489   0.195   0.217  0.00  0.00     0.284 C 
ATOM      9  H3  UNL d   1       0.115   0.750  -1.246  0.00  0.00     0.395 HD
ENDBRANCH   1   7
TORSDOF 1
ENDMDL
