MODEL 1
REMARK minimizedAffinity -1.52180254
REMARK minimizedRMSD -1
REMARK  1 active torsions:
REMARK  status: ('A' for Active; 'I' for Inactive)
REMARK    1  A    between atoms: N_2  and  C1_3 
ROOT
ATOM      1  C1  UNL d   1      -0.768  -0.804  -0.377  0.00  0.00     0.143 A 
ATOM      2  C2  UNL d   1      -0.852  -1.970   0.392  0.00  0.00    -0.057 A 
ATOM      3  C3  UNL d   1      -1.892  -2.888   0.207  0.00  0.00     0.033 A 
ATOM      4  C4  UNL d   1      -2.887  -2.642  -0.734  0.00  0.00    -0.042 A 
ATOM      5  C5  UNL d   1      -2.837  -1.478  -1.493  0.00  0.00     0.033 A 
ATOM      6  C6  UNL d   1      -1.792  -0.568  -1.308  0.00  0.00    -0.057 A 
ENDROOT
BRANCH   1   7
ATOM      7  N   UNL d   1       0.186   0.196  -0.173  0.00  0.00    -0.732 N 
ATOM      8  C   UNL d   1       1.583  -0.142  -0.008  0.00  0.00     0.284 C 
ATOM      9  H3  UNL d   1       0.021   1.014  -0.754  0.00  0.00     0.395 HD
ENDBRANCH   1   7
TORSDOF 1
ENDMDL
