MODEL 1
REMARK minimizedAffinity -4.14314508
REMARK minimizedRMSD -1
REMARK  1 active torsions:
REMARK  status: ('A' for Active; 'I' for Inactive)
REMARK    1  A    between atoms: N_2  and  C1_3 
ROOT
ATOM      1  C1  UNL d   1      -0.055  -0.010  -0.199  0.00  0.00     0.143 A 
ATOM      2  C2  UNL d   1      -0.385  -1.188   0.480  0.00  0.00    -0.057 A 
ATOM      3  C3  UNL d   1      -1.560  -1.890   0.186  0.00  0.00     0.033 A 
ATOM      4  C4  UNL d   1      -2.443  -1.409  -0.776  0.00  0.00    -0.042 A 
ATOM      5  C5  UNL d   1      -2.147  -0.227  -1.446  0.00  0.00     0.033 A 
ATOM      6  C6  UNL d   1      -0.969   0.466  -1.152  0.00  0.00    -0.057 A 
ENDROOT
BRANCH   1   7
ATOM      7  N   UNL d   1       1.049   0.786   0.116  0.00  0.00    -0.732 N 
ATOM      8  C   UNL d   1       2.379   0.217   0.162  0.00  0.00     0.284 C 
ATOM      9  H3  UNL d   1       1.004   1.703  -0.322  0.00  0.00     0.395 HD
ENDBRANCH   1   7
TORSDOF 1
ENDMDL
