MODEL 1
REMARK minimizedAffinity -4.452178
REMARK minimizedRMSD -1
REMARK  1 active torsions:
REMARK  status: ('A' for Active; 'I' for Inactive)
REMARK    1  A    between atoms: N_2  and  C1_3 
ROOT
ATOM      1  C1  UNL d   1      -0.790  -1.333   0.498  0.00  0.00     0.143 A 
ATOM      2  C2  UNL d   1       0.372  -0.563   0.374  0.00  0.00    -0.057 A 
ATOM      3  C3  UNL d   1       0.437   0.514  -0.518  0.00  0.00     0.033 A 
ATOM      4  C4  UNL d   1      -0.652   0.823  -1.326  0.00  0.00    -0.042 A 
ATOM      5  C5  UNL d   1      -1.808   0.056  -1.238  0.00  0.00     0.033 A 
ATOM      6  C6  UNL d   1      -1.870  -1.014  -0.340  0.00  0.00    -0.057 A 
ENDROOT
BRANCH   1   7
ATOM      7  N   UNL d   1      -0.884  -2.476   1.296  0.00  0.00    -0.732 N 
ATOM      8  C   UNL d   1      -1.932  -3.448   1.070  0.00  0.00     0.284 C 
ATOM      9  H3  UNL d   1       0.026  -2.885   1.497  0.00  0.00     0.395 HD
ENDBRANCH   1   7
TORSDOF 1
ENDMDL
