MODEL 1
REMARK minimizedAffinity -3.085464
REMARK minimizedRMSD -1
REMARK  1 active torsions:
REMARK  status: ('A' for Active; 'I' for Inactive)
REMARK    1  A    between atoms: N_2  and  C1_3 
ROOT
ATOM      1  C1  UNL d   1       0.318  -0.062  -0.033  0.00  0.00     0.143 A 
ATOM      2  C2  UNL d   1      -0.072   0.779  -1.080  0.00  0.00    -0.057 A 
ATOM      3  C3  UNL d   1      -1.277   0.577  -1.764  0.00  0.00     0.033 A 
ATOM      4  C4  UNL d   1      -2.102  -0.491  -1.429  0.00  0.00    -0.042 A 
ATOM      5  C5  UNL d   1      -1.723  -1.355  -0.408  0.00  0.00     0.033 A 
ATOM      6  C6  UNL d   1      -0.521  -1.144   0.275  0.00  0.00    -0.057 A 
ENDROOT
BRANCH   1   7
ATOM      7  N   UNL d   1       1.550   0.027   0.620  0.00  0.00    -0.732 N 
ATOM      8  C   UNL d   1       2.023   1.296   1.132  0.00  0.00     0.284 C 
ATOM      9  H3  UNL d   1       1.719  -0.760   1.241  0.00  0.00     0.395 HD
ENDBRANCH   1   7
TORSDOF 1
ENDMDL
