MODEL 1
REMARK minimizedAffinity -3.2475493
REMARK minimizedRMSD -1
REMARK  1 active torsions:
REMARK  status: ('A' for Active; 'I' for Inactive)
REMARK    1  A    between atoms: N_2  and  C1_3 
ROOT
ATOM      1  C1  UNL d   1      -1.596  -1.561  -0.205  0.00  0.00     0.143 A 
ATOM      2  C2  UNL d   1      -0.428  -0.972   0.293  0.00  0.00    -0.057 A 
ATOM      3  C3  UNL d   1       0.181   0.103  -0.366  0.00  0.00     0.033 A 
ATOM      4  C4  UNL d   1      -0.353   0.591  -1.554  0.00  0.00    -0.042 A 
ATOM      5  C5  UNL d   1      -1.498   0.005  -2.081  0.00  0.00     0.033 A 
ATOM      6  C6  UNL d   1      -2.106  -1.064  -1.415  0.00  0.00    -0.057 A 
ENDROOT
BRANCH   1   7
ATOM      7  N   UNL d   1      -2.193  -2.695   0.351  0.00  0.00    -0.732 N 
ATOM      8  C   UNL d   1      -1.430  -3.592   1.192  0.00  0.00     0.284 C 
ATOM      9  H3  UNL d   1      -3.136  -2.513   0.685  0.00  0.00     0.395 HD
ENDBRANCH   1   7
TORSDOF 1
ENDMDL
