MODEL 1
REMARK minimizedAffinity 0.327472746
REMARK minimizedRMSD -1
REMARK  1 active torsions:
REMARK  status: ('A' for Active; 'I' for Inactive)
REMARK    1  A    between atoms: N_2  and  C1_3 
ROOT
ATOM      1  C1  UNL d   1       1.052   1.450   0.623  0.00  0.00     0.143 A 
ATOM      2  C2  UNL d   1      -0.128   1.927   0.042  0.00  0.00    -0.057 A 
ATOM      3  C3  UNL d   1      -0.934   1.100  -0.749  0.00  0.00     0.033 A 
ATOM      4  C4  UNL d   1      -0.558  -0.216  -0.997  0.00  0.00    -0.042 A 
ATOM      5  C5  UNL d   1       0.624  -0.704  -0.451  0.00  0.00     0.033 A 
ATOM      6  C6  UNL d   1       1.421   0.125   0.344  0.00  0.00    -0.057 A 
ENDROOT
BRANCH   1   7
ATOM      7  N   UNL d   1       1.946   2.251   1.338  0.00  0.00    -0.732 N 
ATOM      8  C   UNL d   1       2.097   3.654   1.017  0.00  0.00     0.284 C 
ATOM      9  H3  UNL d   1       1.935   2.052   2.335  0.00  0.00     0.395 HD
ENDBRANCH   1   7
TORSDOF 1
ENDMDL
