MODEL 1
REMARK minimizedAffinity -2.60191512
REMARK minimizedRMSD -1
REMARK  1 active torsions:
REMARK  status: ('A' for Active; 'I' for Inactive)
REMARK    1  A    between atoms: N_2  and  C1_3 
ROOT
ATOM      1  C1  UNL d   1       1.775   1.205   0.401  0.00  0.00     0.143 A 
ATOM      2  C2  UNL d   1       2.839   1.864  -0.224  0.00  0.00    -0.057 A 
ATOM      3  C3  UNL d   1       3.260   3.130   0.202  0.00  0.00     0.033 A 
ATOM      4  C4  UNL d   1       2.603   3.773   1.246  0.00  0.00    -0.042 A 
ATOM      5  C5  UNL d   1       1.526   3.147   1.866  0.00  0.00     0.033 A 
ATOM      6  C6  UNL d   1       1.115   1.881   1.440  0.00  0.00    -0.057 A 
ENDROOT
BRANCH   1   7
ATOM      7  N   UNL d   1       1.246  -0.011  -0.040  0.00  0.00    -0.732 N 
ATOM      8  C   UNL d   1       0.099  -0.039  -0.922  0.00  0.00     0.284 C 
ATOM      9  H3  UNL d   1       1.970  -0.686  -0.276  0.00  0.00     0.395 HD
ENDBRANCH   1   7
TORSDOF 1
ENDMDL
