MODEL 1
REMARK minimizedAffinity 5.208179
REMARK minimizedRMSD -1
REMARK  1 active torsions:
REMARK  status: ('A' for Active; 'I' for Inactive)
REMARK    1  A    between atoms: N_2  and  C1_3 
ROOT
ATOM      1  C1  UNL d   1      -1.721  -2.262   0.697  0.00  0.00     0.143 A 
ATOM      2  C2  UNL d   1      -0.483  -1.689   0.384  0.00  0.00    -0.057 A 
ATOM      3  C3  UNL d   1      -0.384  -0.617  -0.511  0.00  0.00     0.033 A 
ATOM      4  C4  UNL d   1      -1.522  -0.116  -1.133  0.00  0.00    -0.042 A 
ATOM      5  C5  UNL d   1      -2.760  -0.685  -0.857  0.00  0.00     0.033 A 
ATOM      6  C6  UNL d   1      -2.853  -1.751   0.042  0.00  0.00    -0.057 A 
ENDROOT
BRANCH   1   7
ATOM      7  N   UNL d   1      -1.874  -3.392   1.502  0.00  0.00    -0.732 N 
ATOM      8  C   UNL d   1      -1.341  -4.672   1.086  0.00  0.00     0.284 C 
ATOM      9  H3  UNL d   1      -1.739  -3.187   2.490  0.00  0.00     0.395 HD
ENDBRANCH   1   7
TORSDOF 1
ENDMDL
