MODEL 1
REMARK minimizedAffinity -4.90540886
REMARK minimizedRMSD -1
REMARK  1 active torsions:
REMARK  status: ('A' for Active; 'I' for Inactive)
REMARK    1  A    between atoms: N_2  and  C1_3 
ROOT
ATOM      1  C1  UNL d   1      -1.265  -0.471   0.080  0.00  0.00     0.143 A 
ATOM      2  C2  UNL d   1      -2.385   0.036  -0.589  0.00  0.00    -0.057 A 
ATOM      3  C3  UNL d   1      -3.584  -0.685  -0.646  0.00  0.00     0.033 A 
ATOM      4  C4  UNL d   1      -3.675  -1.942  -0.058  0.00  0.00    -0.042 A 
ATOM      5  C5  UNL d   1      -2.567  -2.476   0.590  0.00  0.00     0.033 A 
ATOM      6  C6  UNL d   1      -1.375  -1.749   0.650  0.00  0.00    -0.057 A 
ENDROOT
BRANCH   1   7
ATOM      7  N   UNL d   1      -0.015   0.154   0.087  0.00  0.00    -0.732 N 
ATOM      8  C   UNL d   1       1.201  -0.631   0.079  0.00  0.00     0.284 C 
ATOM      9  H3  UNL d   1       0.014   0.972  -0.517  0.00  0.00     0.395 HD
ENDBRANCH   1   7
TORSDOF 1
ENDMDL
