MODEL 1
REMARK minimizedAffinity -2.93271661
REMARK minimizedRMSD -1
REMARK  1 active torsions:
REMARK  status: ('A' for Active; 'I' for Inactive)
REMARK    1  A    between atoms: N_2  and  C1_3 
ROOT
ATOM      1  C1  UNL d   1      -0.709  -0.838  -0.158  0.00  0.00     0.143 A 
ATOM      2  C2  UNL d   1      -0.319  -1.710   0.864  0.00  0.00    -0.057 A 
ATOM      3  C3  UNL d   1      -1.048  -2.871   1.146  0.00  0.00     0.033 A 
ATOM      4  C4  UNL d   1      -2.201  -3.167   0.426  0.00  0.00    -0.042 A 
ATOM      5  C5  UNL d   1      -2.622  -2.302  -0.578  0.00  0.00     0.033 A 
ATOM      6  C6  UNL d   1      -1.886  -1.147  -0.858  0.00  0.00    -0.057 A 
ENDROOT
BRANCH   1   7
ATOM      7  N   UNL d   1      -0.083   0.383  -0.420  0.00  0.00    -0.732 N 
ATOM      8  C   UNL d   1       0.796   0.986   0.559  0.00  0.00     0.284 C 
ATOM      9  H3  UNL d   1       0.255   0.448  -1.378  0.00  0.00     0.395 HD
ENDBRANCH   1   7
TORSDOF 1
ENDMDL
