MODEL 1
REMARK minimizedAffinity -1.81738853
REMARK minimizedRMSD -1
REMARK  1 active torsions:
REMARK  status: ('A' for Active; 'I' for Inactive)
REMARK    1  A    between atoms: N_2  and  C1_3 
ROOT
ATOM      1  C1  UNL d   1      -0.682  -0.532   0.231  0.00  0.00     0.143 A 
ATOM      2  C2  UNL d   1      -1.735  -0.712  -0.673  0.00  0.00    -0.057 A 
ATOM      3  C3  UNL d   1      -2.574  -1.830  -0.596  0.00  0.00     0.033 A 
ATOM      4  C4  UNL d   1      -2.357  -2.805   0.372  0.00  0.00    -0.042 A 
ATOM      5  C5  UNL d   1      -1.301  -2.660   1.264  0.00  0.00     0.033 A 
ATOM      6  C6  UNL d   1      -0.470  -1.538   1.187  0.00  0.00    -0.057 A 
ENDROOT
BRANCH   1   7
ATOM      7  N   UNL d   1       0.248   0.508   0.145  0.00  0.00    -0.732 N 
ATOM      8  C   UNL d   1       1.622   0.302   0.548  0.00  0.00     0.284 C 
ATOM      9  H3  UNL d   1       0.142   1.054  -0.707  0.00  0.00     0.395 HD
ENDBRANCH   1   7
TORSDOF 1
ENDMDL
