MODEL 1
REMARK minimizedAffinity -3.90349579
REMARK minimizedRMSD -1
REMARK  1 active torsions:
REMARK  status: ('A' for Active; 'I' for Inactive)
REMARK    1  A    between atoms: N_2  and  C1_3 
ROOT
ATOM      1  C1  UNL d   1      -0.121  -0.362   0.078  0.00  0.00     0.143 A 
ATOM      2  C2  UNL d   1      -0.967   0.064  -0.952  0.00  0.00    -0.057 A 
ATOM      3  C3  UNL d   1      -2.202  -0.555  -1.180  0.00  0.00     0.033 A 
ATOM      4  C4  UNL d   1      -2.600  -1.635  -0.399  0.00  0.00    -0.042 A 
ATOM      5  C5  UNL d   1      -1.764  -2.091   0.614  0.00  0.00     0.033 A 
ATOM      6  C6  UNL d   1      -0.536  -1.464   0.842  0.00  0.00    -0.057 A 
ENDROOT
BRANCH   1   7
ATOM      7  N   UNL d   1       1.161   0.149   0.293  0.00  0.00    -0.732 N 
ATOM      8  C   UNL d   1       1.396   1.143   1.318  0.00  0.00     0.284 C 
ATOM      9  H3  UNL d   1       1.880  -0.569   0.237  0.00  0.00     0.395 HD
ENDBRANCH   1   7
TORSDOF 1
ENDMDL
