MODEL 1
REMARK minimizedAffinity -2.25599861
REMARK minimizedRMSD -1
REMARK  0 active torsions:
REMARK  status: ('A' for Active; 'I' for Inactive)
ROOT
ATOM      1  O1  BZF d   1       1.968  -1.603  -0.119  0.00  0.00    -0.204 OA
ATOM      2  C2  BZF d   1       2.606  -2.459   0.757  0.00  0.00     0.174 A 
ATOM      3  C3  BZF d   1       2.076  -2.361   1.994  0.00  0.00    -0.012 A 
ATOM      4  C3A BZF d   1       0.982  -1.449   1.862  0.00  0.00    -0.107 A 
ATOM      5  C4  BZF d   1       0.057  -0.959   2.740  0.00  0.00     0.055 A 
ATOM      6  C5  BZF d   1      -0.834  -0.028   2.309  0.00  0.00    -0.016 A 
ATOM      7  C6  BZF d   1      -0.826   0.439   1.011  0.00  0.00     0.022 A 
ATOM      8  C7  BZF d   1       0.069  -0.021   0.103  0.00  0.00     0.029 A 
ATOM      9  C7A BZF d   1       0.950  -0.986   0.526  0.00  0.00     0.058 A 
ENDROOT
TORSDOF 0
ENDMDL
