MODEL 1
REMARK minimizedAffinity -5.29396677
REMARK minimizedRMSD -1
REMARK  0 active torsions:
REMARK  status: ('A' for Active; 'I' for Inactive)
ROOT
ATOM      1  O1  BZF d   1       0.723  -0.823  -1.591  0.00  0.00    -0.204 OA
ATOM      2  C2  BZF d   1       2.004  -1.297  -1.384  0.00  0.00     0.174 A 
ATOM      3  C3  BZF d   1       2.292  -1.336  -0.067  0.00  0.00    -0.012 A 
ATOM      4  C3A BZF d   1       1.086  -0.944   0.594  0.00  0.00    -0.107 A 
ATOM      5  C4  BZF d   1       0.737  -0.805   1.907  0.00  0.00     0.055 A 
ATOM      6  C5  BZF d   1      -0.499  -0.334   2.216  0.00  0.00    -0.016 A 
ATOM      7  C6  BZF d   1      -1.409   0.013   1.239  0.00  0.00     0.022 A 
ATOM      8  C7  BZF d   1      -1.111  -0.113  -0.078  0.00  0.00     0.029 A 
ATOM      9  C7A BZF d   1       0.126  -0.620  -0.393  0.00  0.00     0.058 A 
ENDROOT
TORSDOF 0
ENDMDL
