MODEL 1
REMARK minimizedAffinity -3.91514111
REMARK minimizedRMSD -1
REMARK  0 active torsions:
REMARK  status: ('A' for Active; 'I' for Inactive)
ROOT
ATOM      1  O1  BZF d   1       1.358   0.476  -1.114  0.00  0.00    -0.204 OA
ATOM      2  C2  BZF d   1       0.672  -0.722  -1.054  0.00  0.00     0.174 A 
ATOM      3  C3  BZF d   1      -0.602  -0.565  -1.467  0.00  0.00    -0.012 A 
ATOM      4  C3A BZF d   1      -0.694   0.797  -1.894  0.00  0.00    -0.107 A 
ATOM      5  C4  BZF d   1      -1.704   1.549  -2.423  0.00  0.00     0.055 A 
ATOM      6  C5  BZF d   1      -1.489   2.869  -2.663  0.00  0.00    -0.016 A 
ATOM      7  C6  BZF d   1      -0.279   3.470  -2.383  0.00  0.00     0.022 A 
ATOM      8  C7  BZF d   1       0.754   2.764  -1.863  0.00  0.00     0.029 A 
ATOM      9  C7A BZF d   1       0.550   1.423  -1.650  0.00  0.00     0.058 A 
ENDROOT
TORSDOF 0
ENDMDL
