MODEL 1
REMARK minimizedAffinity -2.65310168
REMARK minimizedRMSD -1
REMARK  0 active torsions:
REMARK  status: ('A' for Active; 'I' for Inactive)
ROOT
ATOM      1  O1  BZF d   1       1.098   1.502  -1.185  0.00  0.00    -0.204 OA
ATOM      2  C2  BZF d   1       0.413   0.447  -0.613  0.00  0.00     0.174 A 
ATOM      3  C3  BZF d   1      -0.916   0.583  -0.798  0.00  0.00    -0.012 A 
ATOM      4  C3A BZF d   1      -1.065   1.751  -1.611  0.00  0.00    -0.107 A 
ATOM      5  C4  BZF d   1      -2.146   2.392  -2.145  0.00  0.00     0.055 A 
ATOM      6  C5  BZF d   1      -1.956   3.549  -2.831  0.00  0.00    -0.016 A 
ATOM      7  C6  BZF d   1      -0.701   4.096  -2.999  0.00  0.00     0.022 A 
ATOM      8  C7  BZF d   1       0.403   3.494  -2.492  0.00  0.00     0.029 A 
ATOM      9  C7A BZF d   1       0.218   2.307  -1.826  0.00  0.00     0.058 A 
ENDROOT
TORSDOF 0
ENDMDL
