MODEL 1
REMARK minimizedAffinity -6.35033131
REMARK minimizedRMSD -1
REMARK  0 active torsions:
REMARK  status: ('A' for Active; 'I' for Inactive)
ROOT
ATOM      1  O1  BZF d   1       1.912  -1.064  -0.535  0.00  0.00    -0.204 OA
ATOM      2  C2  BZF d   1       0.994  -0.908  -1.555  0.00  0.00     0.174 A 
ATOM      3  C3  BZF d   1      -0.231  -0.641  -1.059  0.00  0.00    -0.012 A 
ATOM      4  C3A BZF d   1      -0.050  -0.538   0.356  0.00  0.00    -0.107 A 
ATOM      5  C4  BZF d   1      -0.897  -0.272   1.394  0.00  0.00     0.055 A 
ATOM      6  C5  BZF d   1      -0.419  -0.318   2.665  0.00  0.00    -0.016 A 
ATOM      7  C6  BZF d   1       0.898  -0.631   2.935  0.00  0.00     0.022 A 
ATOM      8  C7  BZF d   1       1.776  -0.897   1.938  0.00  0.00     0.029 A 
ATOM      9  C7A BZF d   1       1.304  -0.819   0.651  0.00  0.00     0.058 A 
ENDROOT
TORSDOF 0
ENDMDL
