MODEL 1
REMARK minimizedAffinity -2.40324879
REMARK minimizedRMSD -1
REMARK  0 active torsions:
REMARK  status: ('A' for Active; 'I' for Inactive)
ROOT
ATOM      1  O1  BZF d   1       1.973  -1.559  -0.003  0.00  0.00    -0.204 OA
ATOM      2  C2  BZF d   1       2.868  -1.999   0.953  0.00  0.00     0.174 A 
ATOM      3  C3  BZF d   1       2.510  -1.565   2.179  0.00  0.00    -0.012 A 
ATOM      4  C3A BZF d   1       1.266  -0.885   1.989  0.00  0.00    -0.107 A 
ATOM      5  C4  BZF d   1       0.405  -0.249   2.837  0.00  0.00     0.055 A 
ATOM      6  C5  BZF d   1      -0.687   0.376   2.323  0.00  0.00    -0.016 A 
ATOM      7  C6  BZF d   1      -0.945   0.390   0.968  0.00  0.00     0.022 A 
ATOM      8  C7  BZF d   1      -0.122  -0.231   0.088  0.00  0.00     0.029 A 
ATOM      9  C7A BZF d   1       0.964  -0.892   0.608  0.00  0.00     0.058 A 
ENDROOT
TORSDOF 0
ENDMDL
