MODEL 1
REMARK minimizedAffinity -4.09562349
REMARK minimizedRMSD -1
REMARK  0 active torsions:
REMARK  status: ('A' for Active; 'I' for Inactive)
ROOT
ATOM      1  O1  BZF d   1       0.160  -0.883  -1.087  0.00  0.00    -0.204 OA
ATOM      2  C2  BZF d   1      -0.540   0.299  -1.241  0.00  0.00     0.174 A 
ATOM      3  C3  BZF d   1      -0.498   1.030  -0.109  0.00  0.00    -0.012 A 
ATOM      4  C3A BZF d   1       0.352   0.300   0.780  0.00  0.00    -0.107 A 
ATOM      5  C4  BZF d   1       0.793   0.524   2.053  0.00  0.00     0.055 A 
ATOM      6  C5  BZF d   1       1.555  -0.421   2.664  0.00  0.00    -0.016 A 
ATOM      7  C6  BZF d   1       1.891  -1.601   2.034  0.00  0.00     0.022 A 
ATOM      8  C7  BZF d   1       1.482  -1.866   0.769  0.00  0.00     0.029 A 
ATOM      9  C7A BZF d   1       0.739  -0.899   0.137  0.00  0.00     0.058 A 
ENDROOT
TORSDOF 0
ENDMDL
