MODEL 1
REMARK minimizedAffinity -6.332057
REMARK minimizedRMSD -1
REMARK  0 active torsions:
REMARK  status: ('A' for Active; 'I' for Inactive)
ROOT
ATOM      1  O1  BZF d   1       1.282  -0.661  -0.848  0.00  0.00    -0.204 OA
ATOM      2  C2  BZF d   1       0.108   0.067  -0.807  0.00  0.00     0.174 A 
ATOM      3  C3  BZF d   1      -0.351   0.165   0.457  0.00  0.00    -0.012 A 
ATOM      4  C3A BZF d   1       0.644  -0.467   1.269  0.00  0.00    -0.107 A 
ATOM      5  C4  BZF d   1       0.766  -0.674   2.613  0.00  0.00     0.055 A 
ATOM      6  C5  BZF d   1       1.824  -1.390   3.077  0.00  0.00    -0.016 A 
ATOM      7  C6  BZF d   1       2.773  -1.917   2.227  0.00  0.00     0.022 A 
ATOM      8  C7  BZF d   1       2.698  -1.733   0.886  0.00  0.00     0.029 A 
ATOM      9  C7A BZF d   1       1.648  -0.982   0.416  0.00  0.00     0.058 A 
ENDROOT
TORSDOF 0
ENDMDL
