MODEL 1
REMARK minimizedAffinity -2.55442452
REMARK minimizedRMSD -1
REMARK  0 active torsions:
REMARK  status: ('A' for Active; 'I' for Inactive)
ROOT
ATOM      1  O1  BZF d   1       0.929  -1.491  -1.626  0.00  0.00    -0.204 OA
ATOM      2  C2  BZF d   1      -0.008  -0.596  -2.104  0.00  0.00     0.174 A 
ATOM      3  C3  BZF d   1      -0.702  -0.043  -1.089  0.00  0.00    -0.012 A 
ATOM      4  C3A BZF d   1      -0.102  -0.559   0.103  0.00  0.00    -0.107 A 
ATOM      5  C4  BZF d   1      -0.341  -0.367   1.433  0.00  0.00     0.055 A 
ATOM      6  C5  BZF d   1       0.376  -1.078   2.343  0.00  0.00    -0.016 A 
ATOM      7  C6  BZF d   1       1.334  -1.992   1.957  0.00  0.00     0.022 A 
ATOM      8  C7  BZF d   1       1.611  -2.213   0.649  0.00  0.00     0.029 A 
ATOM      9  C7A BZF d   1       0.911  -1.472  -0.272  0.00  0.00     0.058 A 
ENDROOT
TORSDOF 0
ENDMDL
