MODEL 1
REMARK minimizedAffinity -1.8469671
REMARK minimizedRMSD -1
REMARK  0 active torsions:
REMARK  status: ('A' for Active; 'I' for Inactive)
ROOT
ATOM      1  O1  BZF d   1       1.076  -0.171  -0.309  0.00  0.00    -0.204 OA
ATOM      2  C2  BZF d   1       2.074  -0.894  -0.934  0.00  0.00     0.174 A 
ATOM      3  C3  BZF d   1       2.700  -1.704  -0.055  0.00  0.00    -0.012 A 
ATOM      4  C3A BZF d   1       1.992  -1.540   1.177  0.00  0.00    -0.107 A 
ATOM      5  C4  BZF d   1       2.129  -2.092   2.419  0.00  0.00     0.055 A 
ATOM      6  C5  BZF d   1       1.321  -1.664   3.425  0.00  0.00    -0.016 A 
ATOM      7  C6  BZF d   1       0.371  -0.684   3.225  0.00  0.00     0.022 A 
ATOM      8  C7  BZF d   1       0.194  -0.111   2.010  0.00  0.00     0.029 A 
ATOM      9  C7A BZF d   1       0.987  -0.565   0.984  0.00  0.00     0.058 A 
ENDROOT
TORSDOF 0
ENDMDL
