MODEL 1
REMARK minimizedAffinity -3.74230886
REMARK minimizedRMSD -1
REMARK  0 active torsions:
REMARK  status: ('A' for Active; 'I' for Inactive)
ROOT
ATOM      1  O1  BZF d   1       1.429  -1.928   2.090  0.00  0.00    -0.204 OA
ATOM      2  C2  BZF d   1       2.318  -2.193   1.066  0.00  0.00     0.174 A 
ATOM      3  C3  BZF d   1       1.911  -1.615  -0.083  0.00  0.00    -0.012 A 
ATOM      4  C3A BZF d   1       0.740  -0.869   0.266  0.00  0.00    -0.107 A 
ATOM      5  C4  BZF d   1      -0.108  -0.068  -0.444  0.00  0.00     0.055 A 
ATOM      6  C5  BZF d   1      -1.199   0.452   0.177  0.00  0.00    -0.016 A 
ATOM      7  C6  BZF d   1      -1.475   0.188   1.503  0.00  0.00     0.022 A 
ATOM      8  C7  BZF d   1      -0.659  -0.597   2.249  0.00  0.00     0.029 A 
ATOM      9  C7A BZF d   1       0.462  -1.097   1.633  0.00  0.00     0.058 A 
ENDROOT
TORSDOF 0
ENDMDL
