MODEL 1
REMARK minimizedAffinity -5.34847069
REMARK minimizedRMSD -1
REMARK  2 active torsions:
REMARK  status: ('A' for Active; 'I' for Inactive)
REMARK    1  A    between atoms: C1_2  and  C2_3 
REMARK    2  A    between atoms: C2_3  and  C3_4 
ROOT
ATOM      1  C3  UNL d   1      -0.257   0.307   0.499  0.00  0.00    -0.075 A 
ATOM      2  C4  UNL d   1      -0.797   1.197  -0.442  0.00  0.00     0.002 A 
ATOM      3  C5  UNL d   1      -1.144   2.496  -0.070  0.00  0.00     0.002 A 
ATOM      4  C6  UNL d   1      -0.964   2.919   1.245  0.00  0.00    -0.004 A 
ATOM      5  C7  UNL d   1      -0.444   2.039   2.191  0.00  0.00     0.002 A 
ATOM      6  C8  UNL d   1      -0.092   0.740   1.821  0.00  0.00     0.002 A 
ENDROOT
BRANCH   1   7
ATOM      7  C2  UNL d   1       0.147  -1.091   0.097  0.00  0.00     0.056 C 
BRANCH   7   8
ATOM      8  C1  UNL d   1      -0.022  -1.384  -1.398  0.00  0.00     0.007 C 
ATOM      9  C   UNL d   1      -0.730  -2.703  -1.675  0.00  0.00     0.009 C 
ENDBRANCH   7   8
ENDBRANCH   1   7
TORSDOF 2
ENDMDL
