MODEL 1
REMARK minimizedAffinity -5.66444969
REMARK minimizedRMSD -1
REMARK  2 active torsions:
REMARK  status: ('A' for Active; 'I' for Inactive)
REMARK    1  A    between atoms: C1_2  and  C2_3 
REMARK    2  A    between atoms: C2_3  and  C3_4 
ROOT
ATOM      1  C3  UNL d   1      -0.352   1.020   0.379  0.00  0.00    -0.075 A 
ATOM      2  C4  UNL d   1      -0.398   1.806  -0.782  0.00  0.00     0.002 A 
ATOM      3  C5  UNL d   1      -1.000   3.065  -0.761  0.00  0.00     0.002 A 
ATOM      4  C6  UNL d   1      -1.571   3.548   0.415  0.00  0.00    -0.004 A 
ATOM      5  C7  UNL d   1      -1.545   2.769   1.569  0.00  0.00     0.002 A 
ATOM      6  C8  UNL d   1      -0.940   1.511   1.552  0.00  0.00     0.002 A 
ENDROOT
BRANCH   1   7
ATOM      7  C2  UNL d   1       0.324  -0.330   0.370  0.00  0.00     0.056 C 
BRANCH   7   8
ATOM      8  C1  UNL d   1       0.611  -0.875  -1.033  0.00  0.00     0.007 C 
ATOM      9  C   UNL d   1      -0.205  -2.115  -1.374  0.00  0.00     0.009 C 
ENDBRANCH   7   8
ENDBRANCH   1   7
TORSDOF 2
ENDMDL
