MODEL 1
REMARK minimizedAffinity -6.24636889
REMARK minimizedRMSD -1
REMARK  2 active torsions:
REMARK  status: ('A' for Active; 'I' for Inactive)
REMARK    1  A    between atoms: C1_2  and  C2_3 
REMARK    2  A    between atoms: C2_3  and  C3_4 
ROOT
ATOM      1  C3  UNL d   1       0.011   0.472  -0.057  0.00  0.00    -0.075 A 
ATOM      2  C4  UNL d   1      -0.329   1.101  -1.264  0.00  0.00     0.002 A 
ATOM      3  C5  UNL d   1      -0.873   2.386  -1.264  0.00  0.00     0.002 A 
ATOM      4  C6  UNL d   1      -1.094   3.052  -0.061  0.00  0.00    -0.004 A 
ATOM      5  C7  UNL d   1      -0.775   2.431   1.144  0.00  0.00     0.002 A 
ATOM      6  C8  UNL d   1      -0.226   1.147   1.148  0.00  0.00     0.002 A 
ENDROOT
BRANCH   1   7
ATOM      7  C2  UNL d   1       0.628  -0.906  -0.051  0.00  0.00     0.056 C 
BRANCH   7   8
ATOM      8  C1  UNL d   1       0.701  -1.563  -1.434  0.00  0.00     0.007 C 
ATOM      9  C   UNL d   1       0.089  -2.956  -1.470  0.00  0.00     0.009 C 
ENDBRANCH   7   8
ENDBRANCH   1   7
TORSDOF 2
ENDMDL
