MODEL 1
REMARK minimizedAffinity -6.06943321
REMARK minimizedRMSD -1
REMARK  2 active torsions:
REMARK  status: ('A' for Active; 'I' for Inactive)
REMARK    1  A    between atoms: C1_2  and  C2_3 
REMARK    2  A    between atoms: C2_3  and  C3_4 
ROOT
ATOM      1  C3  UNL d   1      -0.282   1.028  -0.432  0.00  0.00    -0.075 A 
ATOM      2  C4  UNL d   1      -1.015   2.157  -0.825  0.00  0.00     0.002 A 
ATOM      3  C5  UNL d   1      -1.483   3.065   0.125  0.00  0.00     0.002 A 
ATOM      4  C6  UNL d   1      -1.232   2.851   1.479  0.00  0.00    -0.004 A 
ATOM      5  C7  UNL d   1      -0.518   1.725   1.882  0.00  0.00     0.002 A 
ATOM      6  C8  UNL d   1      -0.046   0.817   0.933  0.00  0.00     0.002 A 
ENDROOT
BRANCH   1   7
ATOM      7  C2  UNL d   1       0.252   0.058  -1.458  0.00  0.00     0.056 C 
BRANCH   7   8
ATOM      8  C1  UNL d   1       0.664  -1.299  -0.878  0.00  0.00     0.007 C 
ATOM      9  C   UNL d   1      -0.171  -2.457  -1.408  0.00  0.00     0.009 C 
ENDBRANCH   7   8
ENDBRANCH   1   7
TORSDOF 2
ENDMDL
