MODEL 1
REMARK minimizedAffinity -5.06667948
REMARK minimizedRMSD -1
REMARK  2 active torsions:
REMARK  status: ('A' for Active; 'I' for Inactive)
REMARK    1  A    between atoms: C1_2  and  C2_3 
REMARK    2  A    between atoms: C2_3  and  C3_4 
ROOT
ATOM      1  C3  UNL d   1      -0.423   0.623  -0.033  0.00  0.00    -0.075 A 
ATOM      2  C4  UNL d   1      -0.637   1.254  -1.266  0.00  0.00     0.002 A 
ATOM      3  C5  UNL d   1      -1.048   2.586  -1.318  0.00  0.00     0.002 A 
ATOM      4  C6  UNL d   1      -1.261   3.299  -0.141  0.00  0.00    -0.004 A 
ATOM      5  C7  UNL d   1      -1.067   2.677   1.091  0.00  0.00     0.002 A 
ATOM      6  C8  UNL d   1      -0.651   1.346   1.146  0.00  0.00     0.002 A 
ENDROOT
BRANCH   1   7
ATOM      7  C2  UNL d   1       0.051  -0.810   0.030  0.00  0.00     0.056 C 
BRANCH   7   8
ATOM      8  C1  UNL d   1       0.413  -1.407  -1.333  0.00  0.00     0.007 C 
ATOM      9  C   UNL d   1       0.781  -2.883  -1.264  0.00  0.00     0.009 C 
ENDBRANCH   7   8
ENDBRANCH   1   7
TORSDOF 2
ENDMDL
