MODEL 1
REMARK minimizedAffinity -5.47967482
REMARK minimizedRMSD -1
REMARK  2 active torsions:
REMARK  status: ('A' for Active; 'I' for Inactive)
REMARK    1  A    between atoms: C1_2  and  C2_3 
REMARK    2  A    between atoms: C2_3  and  C3_4 
ROOT
ATOM      1  C3  UNL d   1      -0.135   0.749   0.485  0.00  0.00    -0.075 A 
ATOM      2  C4  UNL d   1      -0.681   1.436  -0.610  0.00  0.00     0.002 A 
ATOM      3  C5  UNL d   1      -1.197   2.723  -0.452  0.00  0.00     0.002 A 
ATOM      4  C6  UNL d   1      -1.185   3.333   0.800  0.00  0.00    -0.004 A 
ATOM      5  C7  UNL d   1      -0.660   2.654   1.897  0.00  0.00     0.002 A 
ATOM      6  C8  UNL d   1      -0.139   1.368   1.742  0.00  0.00     0.002 A 
ENDROOT
BRANCH   1   7
ATOM      7  C2  UNL d   1       0.452  -0.631   0.315  0.00  0.00     0.056 C 
BRANCH   7   8
ATOM      8  C1  UNL d   1       0.353  -1.180  -1.112  0.00  0.00     0.007 C 
ATOM      9  C   UNL d   1       0.154  -2.689  -1.163  0.00  0.00     0.009 C 
ENDBRANCH   7   8
ENDBRANCH   1   7
TORSDOF 2
ENDMDL
