MODEL 1
REMARK minimizedAffinity -6.20531082
REMARK minimizedRMSD -1
REMARK  2 active torsions:
REMARK  status: ('A' for Active; 'I' for Inactive)
REMARK    1  A    between atoms: C1_2  and  C2_3 
REMARK    2  A    between atoms: C2_3  and  C3_4 
ROOT
ATOM      1  C3  UNL d   1      -0.357   0.862   0.571  0.00  0.00    -0.075 A 
ATOM      2  C4  UNL d   1      -0.586   1.540  -0.636  0.00  0.00     0.002 A 
ATOM      3  C5  UNL d   1      -0.995   2.874  -0.632  0.00  0.00     0.002 A 
ATOM      4  C6  UNL d   1      -1.190   3.543   0.574  0.00  0.00    -0.004 A 
ATOM      5  C7  UNL d   1      -0.982   2.875   1.779  0.00  0.00     0.002 A 
ATOM      6  C8  UNL d   1      -0.568   1.541   1.778  0.00  0.00     0.002 A 
ENDROOT
BRANCH   1   7
ATOM      7  C2  UNL d   1       0.114  -0.572   0.574  0.00  0.00     0.056 C 
BRANCH   7   8
ATOM      8  C1  UNL d   1       0.428  -1.128  -0.819  0.00  0.00     0.007 C 
ATOM      9  C   UNL d   1      -0.096  -2.542  -1.033  0.00  0.00     0.009 C 
ENDBRANCH   7   8
ENDBRANCH   1   7
TORSDOF 2
ENDMDL
