MODEL 1
REMARK minimizedAffinity -3.47760153
REMARK minimizedRMSD -1
REMARK  0 active torsions:
REMARK  status: ('A' for Active; 'I' for Inactive)
ROOT
ATOM      1  C   UNL d   1      -1.715  -0.121  -2.429  0.00  0.00     0.124 A 
ATOM      2  C1  UNL d   1      -2.027   0.139  -1.102  0.00  0.00     0.062 A 
ATOM      3  C2  UNL d   1      -1.021   0.465  -0.197  0.00  0.00     0.162 A 
ATOM      4  C3  UNL d   1       0.308   0.535  -0.617  0.00  0.00    -0.034 A 
ATOM      5  C4  UNL d   1       0.614   0.271  -1.954  0.00  0.00     0.162 A 
ATOM      6  C5  UNL d   1      -0.396  -0.054  -2.854  0.00  0.00     0.062 A 
ATOM      7  F   UNL d   1      -0.093  -0.305  -4.136  0.00  0.00    -0.097 F 
ATOM      8  F1  UNL d   1       1.880   0.329  -2.391  0.00  0.00    -0.096 F 
ATOM      9  I   UNL d   1       1.816   1.022   0.732  0.00  0.00    -0.060 I 
ATOM     10  F2  UNL d   1      -1.351   0.711   1.079  0.00  0.00    -0.096 F 
ATOM     11  F3  UNL d   1      -3.301   0.075  -0.689  0.00  0.00    -0.097 F 
ATOM     12  F4  UNL d   1      -2.685  -0.435  -3.297  0.00  0.00    -0.092 F 
ENDROOT
TORSDOF 0
ENDMDL
