MODEL 1
REMARK minimizedAffinity 4.3348403
REMARK minimizedRMSD -1
REMARK  0 active torsions:
REMARK  status: ('A' for Active; 'I' for Inactive)
ROOT
ATOM      1  C   UNL d   1       1.742  -0.139   1.353  0.00  0.00     0.124 A 
ATOM      2  C1  UNL d   1       0.642  -0.984   1.320  0.00  0.00     0.062 A 
ATOM      3  C2  UNL d   1      -0.419  -0.720   0.459  0.00  0.00     0.162 A 
ATOM      4  C3  UNL d   1      -0.384   0.395  -0.378  0.00  0.00    -0.034 A 
ATOM      5  C4  UNL d   1       0.725   1.241  -0.340  0.00  0.00     0.162 A 
ATOM      6  C5  UNL d   1       1.783   0.973   0.523  0.00  0.00     0.062 A 
ATOM      7  F   UNL d   1       2.845   1.791   0.553  0.00  0.00    -0.097 F 
ATOM      8  F1  UNL d   1       0.791   2.322  -1.131  0.00  0.00    -0.096 F 
ATOM      9  I   UNL d   1      -1.969   0.793  -1.668  0.00  0.00    -0.060 I 
ATOM     10  F2  UNL d   1      -1.469  -1.555   0.449  0.00  0.00    -0.096 F 
ATOM     11  F3  UNL d   1       0.600  -2.059   2.122  0.00  0.00    -0.097 F 
ATOM     12  F4  UNL d   1       2.761  -0.395   2.183  0.00  0.00    -0.092 F 
ENDROOT
TORSDOF 0
ENDMDL
