MODEL 1
REMARK minimizedAffinity 2.25265813
REMARK minimizedRMSD -1
REMARK  0 active torsions:
REMARK  status: ('A' for Active; 'I' for Inactive)
ROOT
ATOM      1  C   UNL d   1      -0.848   0.456  -0.204  0.00  0.00     0.124 A 
ATOM      2  C1  UNL d   1       0.414   0.932   0.126  0.00  0.00     0.062 A 
ATOM      3  C2  UNL d   1       1.197   0.252   1.055  0.00  0.00     0.162 A 
ATOM      4  C3  UNL d   1       0.721  -0.912   1.659  0.00  0.00    -0.034 A 
ATOM      5  C4  UNL d   1      -0.549  -1.383   1.322  0.00  0.00     0.162 A 
ATOM      6  C5  UNL d   1      -1.328  -0.700   0.394  0.00  0.00     0.062 A 
ATOM      7  F   UNL d   1      -2.546  -1.161   0.075  0.00  0.00    -0.097 F 
ATOM      8  F1  UNL d   1      -1.037  -2.499   1.884  0.00  0.00    -0.096 F 
ATOM      9  I   UNL d   1       1.888  -1.931   3.049  0.00  0.00    -0.060 I 
ATOM     10  F2  UNL d   1       2.412   0.735   1.356  0.00  0.00    -0.096 F 
ATOM     11  F3  UNL d   1       0.880   2.049  -0.449  0.00  0.00    -0.097 F 
ATOM     12  F4  UNL d   1      -1.599   1.113  -1.098  0.00  0.00    -0.092 F 
ENDROOT
TORSDOF 0
ENDMDL
