MODEL 1
REMARK minimizedAffinity 2.05370831
REMARK minimizedRMSD -1
REMARK  0 active torsions:
REMARK  status: ('A' for Active; 'I' for Inactive)
ROOT
ATOM      1  C   UNL d   1       0.925  -0.231   1.060  0.00  0.00     0.124 A 
ATOM      2  C1  UNL d   1       0.900   0.738   0.067  0.00  0.00     0.062 A 
ATOM      3  C2  UNL d   1      -0.183   0.819  -0.804  0.00  0.00     0.162 A 
ATOM      4  C3  UNL d   1      -1.251  -0.070  -0.684  0.00  0.00    -0.034 A 
ATOM      5  C4  UNL d   1      -1.218  -1.043   0.317  0.00  0.00     0.162 A 
ATOM      6  C5  UNL d   1      -0.133  -1.120   1.184  0.00  0.00     0.062 A 
ATOM      7  F   UNL d   1      -0.110  -2.057   2.143  0.00  0.00    -0.097 F 
ATOM      8  F1  UNL d   1      -2.227  -1.914   0.459  0.00  0.00    -0.096 F 
ATOM      9  I   UNL d   1      -2.872   0.048  -1.984  0.00  0.00    -0.060 I 
ATOM     10  F2  UNL d   1      -0.181   1.766  -1.754  0.00  0.00    -0.096 F 
ATOM     11  F3  UNL d   1       1.921   1.598  -0.055  0.00  0.00    -0.097 F 
ATOM     12  F4  UNL d   1       1.969  -0.308   1.896  0.00  0.00    -0.092 F 
ENDROOT
TORSDOF 0
ENDMDL
