MODEL 1
REMARK minimizedAffinity -2.75965667
REMARK minimizedRMSD -1
REMARK  0 active torsions:
REMARK  status: ('A' for Active; 'I' for Inactive)
ROOT
ATOM      1  C   UNL d   1      -0.761  -0.396   0.369  0.00  0.00     0.172 C 
ATOM      2  N   UNL d   1      -0.390   0.361   1.541  0.00  0.00    -0.070 N 
ATOM      3  C1  UNL d   1       0.294   1.547   1.542  0.00  0.00    -0.004 A 
ATOM      4  C2  UNL d   1       0.449   1.944   2.853  0.00  0.00    -0.047 A 
ATOM      5  C3  UNL d   1      -0.162   0.962   3.668  0.00  0.00    -0.047 A 
ATOM      6  C4  UNL d   1      -0.673  -0.006   2.830  0.00  0.00    -0.004 A 
ENDROOT
TORSDOF 0
ENDMDL
