MODEL 1
REMARK minimizedAffinity -1.24366271
REMARK minimizedRMSD -1
REMARK  0 active torsions:
REMARK  status: ('A' for Active; 'I' for Inactive)
ROOT
ATOM      1  C   UNL d   1      -3.899  -1.783   3.405  0.00  0.00     0.172 C 
ATOM      2  N   UNL d   1      -2.516  -1.672   3.806  0.00  0.00    -0.070 N 
ATOM      3  C1  UNL d   1      -1.932  -2.334   4.853  0.00  0.00    -0.004 A 
ATOM      4  C2  UNL d   1      -0.607  -1.960   4.903  0.00  0.00    -0.047 A 
ATOM      5  C3  UNL d   1      -0.387  -1.039   3.851  0.00  0.00    -0.047 A 
ATOM      6  C4  UNL d   1      -1.585  -0.879   3.188  0.00  0.00    -0.004 A 
ENDROOT
TORSDOF 0
ENDMDL
