MODEL 1
REMARK minimizedAffinity 4.88314676
REMARK minimizedRMSD -1
REMARK  0 active torsions:
REMARK  status: ('A' for Active; 'I' for Inactive)
ROOT
ATOM      1  C   UNL d   1      -0.845  -1.102  -5.219  0.00  0.00     0.172 C 
ATOM      2  N   UNL d   1       0.281  -0.306  -4.789  0.00  0.00    -0.070 N 
ATOM      3  C1  UNL d   1       1.443  -0.123  -5.489  0.00  0.00    -0.004 A 
ATOM      4  C2  UNL d   1       2.260   0.698  -4.743  0.00  0.00    -0.047 A 
ATOM      5  C3  UNL d   1       1.565   1.020  -3.553  0.00  0.00    -0.047 A 
ATOM      6  C4  UNL d   1       0.342   0.385  -3.607  0.00  0.00    -0.004 A 
ENDROOT
TORSDOF 0
ENDMDL
