MODEL 1
REMARK minimizedAffinity -1.5742389
REMARK minimizedRMSD -1
REMARK  0 active torsions:
REMARK  status: ('A' for Active; 'I' for Inactive)
ROOT
ATOM      1  C   UNL d   1       1.691  -0.363   0.168  0.00  0.00     0.172 C 
ATOM      2  N   UNL d   1       2.998  -0.086  -0.381  0.00  0.00    -0.070 N 
ATOM      3  C1  UNL d   1       3.252   0.653  -1.505  0.00  0.00    -0.004 A 
ATOM      4  C2  UNL d   1       4.617   0.682  -1.692  0.00  0.00    -0.047 A 
ATOM      5  C3  UNL d   1       5.204  -0.066  -0.644  0.00  0.00    -0.047 A 
ATOM      6  C4  UNL d   1       4.179  -0.530   0.153  0.00  0.00    -0.004 A 
ENDROOT
TORSDOF 0
ENDMDL
