MODEL 1
REMARK minimizedAffinity 3.11085725
REMARK minimizedRMSD -1
REMARK  0 active torsions:
REMARK  status: ('A' for Active; 'I' for Inactive)
ROOT
ATOM      1  C4' PXY d   1       5.979   5.991   5.882  0.00  0.00     0.077 C 
ATOM      2  C1' PXY d   1       2.672   2.205   3.029  0.00  0.00     0.077 C 
ATOM      3  C1  PXY d   1       3.543   3.203   3.766  0.00  0.00    -0.082 A 
ATOM      4  C2  PXY d   1       3.978   2.918   4.982  0.00  0.00     0.003 A 
ATOM      5  C3  PXY d   1       4.741   3.823   5.676  0.00  0.00     0.003 A 
ATOM      6  C4  PXY d   1       5.105   5.009   5.097  0.00  0.00    -0.082 A 
ATOM      7  C5  PXY d   1       4.673   5.303   3.852  0.00  0.00     0.003 A 
ATOM      8  C6  PXY d   1       3.866   4.388   3.181  0.00  0.00     0.003 A 
ENDROOT
TORSDOF 0
ENDMDL
