MODEL 1
REMARK minimizedAffinity 13.8150034
REMARK minimizedRMSD -1
REMARK  0 active torsions:
REMARK  status: ('A' for Active; 'I' for Inactive)
ROOT
ATOM      1  C4' PXY d   1       2.320   3.480   3.288  0.00  0.00     0.077 C 
ATOM      2  C1' PXY d   1       5.221   5.993  -1.035  0.00  0.00     0.077 C 
ATOM      3  C1  PXY d   1       4.470   5.337   0.107  0.00  0.00    -0.082 A 
ATOM      4  C2  PXY d   1       3.565   4.407  -0.154  0.00  0.00     0.003 A 
ATOM      5  C3  PXY d   1       2.854   3.827   0.865  0.00  0.00     0.003 A 
ATOM      6  C4  PXY d   1       3.109   4.163   2.167  0.00  0.00    -0.082 A 
ATOM      7  C5  PXY d   1       4.039   5.102   2.442  0.00  0.00     0.003 A 
ATOM      8  C6  PXY d   1       4.721   5.709   1.391  0.00  0.00     0.003 A 
ENDROOT
TORSDOF 0
ENDMDL
