MODEL 1
REMARK minimizedAffinity 5.73913336
REMARK minimizedRMSD -1
REMARK  0 active torsions:
REMARK  status: ('A' for Active; 'I' for Inactive)
ROOT
ATOM      1  C4' PXY d   1       0.356  -3.712  -0.416  0.00  0.00     0.077 C 
ATOM      2  C1' PXY d   1       3.642   0.826   1.005  0.00  0.00     0.077 C 
ATOM      3  C1  PXY d   1       2.774  -0.357   0.623  0.00  0.00    -0.082 A 
ATOM      4  C2  PXY d   1       2.516  -1.295   1.519  0.00  0.00     0.003 A 
ATOM      5  C3  PXY d   1       1.759  -2.388   1.181  0.00  0.00     0.003 A 
ATOM      6  C4  PXY d   1       1.219  -2.495  -0.072  0.00  0.00    -0.082 A 
ATOM      7  C5  PXY d   1       1.469  -1.537  -0.989  0.00  0.00     0.003 A 
ATOM      8  C6  PXY d   1       2.273  -0.456  -0.638  0.00  0.00     0.003 A 
ENDROOT
TORSDOF 0
ENDMDL
