MODEL 1
REMARK minimizedAffinity 10.0045347
REMARK minimizedRMSD -1
REMARK  0 active torsions:
REMARK  status: ('A' for Active; 'I' for Inactive)
ROOT
ATOM      1  C4' PXY d   1      -3.857   1.005   0.371  0.00  0.00     0.077 C 
ATOM      2  C1' PXY d   1       1.868   1.800   0.331  0.00  0.00     0.077 C 
ATOM      3  C1  PXY d   1       0.368   1.583   0.352  0.00  0.00    -0.082 A 
ATOM      4  C2  PXY d   1      -0.338   1.790  -0.748  0.00  0.00     0.003 A 
ATOM      5  C3  PXY d   1      -1.699   1.630  -0.739  0.00  0.00     0.003 A 
ATOM      6  C4  PXY d   1      -2.339   1.202   0.394  0.00  0.00    -0.082 A 
ATOM      7  C5  PXY d   1      -1.624   0.978   1.517  0.00  0.00     0.003 A 
ATOM      8  C6  PXY d   1      -0.248   1.186   1.498  0.00  0.00     0.003 A 
ENDROOT
TORSDOF 0
ENDMDL
