MODEL 1
REMARK minimizedAffinity 10.6871815
REMARK minimizedRMSD -1
REMARK  0 active torsions:
REMARK  status: ('A' for Active; 'I' for Inactive)
ROOT
ATOM      1  C4' PXY d   1       2.926  -2.628  -1.107  0.00  0.00     0.077 C 
ATOM      2  C1' PXY d   1       2.083   1.951   2.318  0.00  0.00     0.077 C 
ATOM      3  C1  PXY d   1       2.316   0.748   1.425  0.00  0.00    -0.082 A 
ATOM      4  C2  PXY d   1       1.643   0.635   0.292  0.00  0.00     0.003 A 
ATOM      5  C3  PXY d   1       1.818  -0.462  -0.512  0.00  0.00     0.003 A 
ATOM      6  C4  PXY d   1       2.730  -1.427  -0.178  0.00  0.00    -0.082 A 
ATOM      7  C5  PXY d   1       3.429  -1.313   0.971  0.00  0.00     0.003 A 
ATOM      8  C6  PXY d   1       3.207  -0.212   1.793  0.00  0.00     0.003 A 
ENDROOT
TORSDOF 0
ENDMDL
