MODEL 1
REMARK minimizedAffinity 6.78983784
REMARK minimizedRMSD -1
REMARK  0 active torsions:
REMARK  status: ('A' for Active; 'I' for Inactive)
ROOT
ATOM      1  C4' PXY d   1      -5.650   5.648   5.705  0.00  0.00     0.077 C 
ATOM      2  C1' PXY d   1      -5.377   3.953   0.185  0.00  0.00     0.077 C 
ATOM      3  C1  PXY d   1      -5.448   4.385   1.637  0.00  0.00    -0.082 A 
ATOM      4  C2  PXY d   1      -5.953   5.569   1.942  0.00  0.00     0.003 A 
ATOM      5  C3  PXY d   1      -5.995   5.989   3.247  0.00  0.00     0.003 A 
ATOM      6  C4  PXY d   1      -5.567   5.166   4.254  0.00  0.00    -0.082 A 
ATOM      7  C5  PXY d   1      -5.061   3.952   3.951  0.00  0.00     0.003 A 
ATOM      8  C6  PXY d   1      -4.988   3.561   2.617  0.00  0.00     0.003 A 
ENDROOT
TORSDOF 0
ENDMDL
