MODEL 1
REMARK minimizedAffinity -3.10896468
REMARK minimizedRMSD -1
REMARK  1 active torsions:
REMARK  status: ('A' for Active; 'I' for Inactive)
REMARK    1  A    between atoms: C1_2  and  C2_3 
ROOT
ATOM      1  C2  UNL d   1       0.080   0.729  -0.208  0.00  0.00    -0.073 A 
ATOM      2  C3  UNL d   1       0.584   1.848   0.464  0.00  0.00    -0.002 A 
ATOM      3  C4  UNL d   1       0.139   2.158   1.750  0.00  0.00     0.004 A 
ATOM      4  C5  UNL d   1      -0.808   1.350   2.379  0.00  0.00    -0.004 A 
ATOM      5  C6  UNL d   1      -1.315   0.220   1.728  0.00  0.00    -0.075 A 
ATOM      6  C7  UNL d   1      -2.335  -0.659   2.390  0.00  0.00     0.076 C 
ATOM      7  C8  UNL d   1      -0.865  -0.083   0.436  0.00  0.00     0.001 A 
ENDROOT
BRANCH   1   8
ATOM      8  C1  UNL d   1       0.562   0.387  -1.594  0.00  0.00     0.053 C 
ATOM      9  C   UNL d   1      -0.589   0.069  -2.536  0.00  0.00     0.018 C 
ENDBRANCH   1   8
TORSDOF 1
ENDMDL
