MODEL 1
REMARK minimizedAffinity -3.87980509
REMARK minimizedRMSD -1
REMARK  1 active torsions:
REMARK  status: ('A' for Active; 'I' for Inactive)
REMARK    1  A    between atoms: C1_2  and  C2_3 
ROOT
ATOM      1  C2  UNL d   1       0.647   0.214  -2.400  0.00  0.00    -0.073 A 
ATOM      2  C3  UNL d   1       1.595   1.184  -2.741  0.00  0.00    -0.002 A 
ATOM      3  C4  UNL d   1       1.658   1.680  -4.044  0.00  0.00     0.004 A 
ATOM      4  C5  UNL d   1       0.771   1.217  -5.015  0.00  0.00    -0.004 A 
ATOM      5  C6  UNL d   1      -0.192   0.256  -4.690  0.00  0.00    -0.075 A 
ATOM      6  C7  UNL d   1      -1.153  -0.254  -5.724  0.00  0.00     0.076 C 
ATOM      7  C8  UNL d   1      -0.247  -0.239  -3.380  0.00  0.00     0.001 A 
ENDROOT
BRANCH   1   8
ATOM      8  C1  UNL d   1       0.571  -0.320  -0.992  0.00  0.00     0.053 C 
ATOM      9  C   UNL d   1       0.332   0.785   0.024  0.00  0.00     0.018 C 
ENDBRANCH   1   8
TORSDOF 1
ENDMDL
