MODEL 1
REMARK minimizedAffinity 0.567758143
REMARK minimizedRMSD -1
REMARK  1 active torsions:
REMARK  status: ('A' for Active; 'I' for Inactive)
REMARK    1  A    between atoms: C1_2  and  C2_3 
ROOT
ATOM      1  C2  UNL d   1      -1.939   0.138   2.713  0.00  0.00    -0.073 A 
ATOM      2  C3  UNL d   1      -1.497   1.329   3.298  0.00  0.00    -0.002 A 
ATOM      3  C4  UNL d   1      -0.624   2.172   2.609  0.00  0.00     0.004 A 
ATOM      4  C5  UNL d   1      -0.189   1.836   1.327  0.00  0.00    -0.004 A 
ATOM      5  C6  UNL d   1      -0.629   0.655   0.720  0.00  0.00    -0.075 A 
ATOM      6  C7  UNL d   1      -0.169   0.278  -0.657  0.00  0.00     0.076 C 
ATOM      7  C8  UNL d   1      -1.504  -0.187   1.420  0.00  0.00     0.001 A 
ENDROOT
BRANCH   1   8
ATOM      8  C1  UNL d   1      -2.887  -0.772   3.450  0.00  0.00     0.053 C 
ATOM      9  C   UNL d   1      -2.180  -1.992   4.019  0.00  0.00     0.018 C 
ENDBRANCH   1   8
TORSDOF 1
ENDMDL
