MODEL 1
REMARK minimizedAffinity -3.005934
REMARK minimizedRMSD -1
REMARK  1 active torsions:
REMARK  status: ('A' for Active; 'I' for Inactive)
REMARK    1  A    between atoms: C1_2  and  C2_3 
ROOT
ATOM      1  C2  UNL d   1       0.442   0.850  -2.510  0.00  0.00    -0.073 A 
ATOM      2  C3  UNL d   1       1.693   1.237  -3.004  0.00  0.00    -0.002 A 
ATOM      3  C4  UNL d   1       1.997   1.073  -4.356  0.00  0.00     0.004 A 
ATOM      4  C5  UNL d   1       1.054   0.529  -5.227  0.00  0.00    -0.004 A 
ATOM      5  C6  UNL d   1      -0.206   0.148  -4.755  0.00  0.00    -0.075 A 
ATOM      6  C7  UNL d   1      -1.231  -0.441  -5.679  0.00  0.00     0.076 C 
ATOM      7  C8  UNL d   1      -0.503   0.313  -3.395  0.00  0.00     0.001 A 
ENDROOT
BRANCH   1   8
ATOM      8  C1  UNL d   1       0.106   1.031  -1.052  0.00  0.00     0.053 C 
ATOM      9  C   UNL d   1       0.524  -0.170  -0.218  0.00  0.00     0.018 C 
ENDBRANCH   1   8
TORSDOF 1
ENDMDL
