MODEL 1
REMARK minimizedAffinity -2.10932326
REMARK minimizedRMSD -1
REMARK  1 active torsions:
REMARK  status: ('A' for Active; 'I' for Inactive)
REMARK    1  A    between atoms: C1_2  and  C2_3 
ROOT
ATOM      1  C2  UNL d   1       0.253   0.275  -4.581  0.00  0.00    -0.073 A 
ATOM      2  C3  UNL d   1       0.172   1.466  -3.851  0.00  0.00    -0.002 A 
ATOM      3  C4  UNL d   1       1.304   1.984  -3.221  0.00  0.00     0.004 A 
ATOM      4  C5  UNL d   1       2.528   1.323  -3.321  0.00  0.00    -0.004 A 
ATOM      5  C6  UNL d   1       2.632   0.138  -4.057  0.00  0.00    -0.075 A 
ATOM      6  C7  UNL d   1       3.940  -0.587  -4.172  0.00  0.00     0.076 C 
ATOM      7  C8  UNL d   1       1.490  -0.378  -4.684  0.00  0.00     0.001 A 
ENDROOT
BRANCH   1   8
ATOM      8  C1  UNL d   1      -0.966  -0.286  -5.268  0.00  0.00     0.053 C 
ATOM      9  C   UNL d   1      -1.643  -1.364  -4.437  0.00  0.00     0.018 C 
ENDBRANCH   1   8
TORSDOF 1
ENDMDL
