MODEL 1
REMARK minimizedAffinity -4.49498653
REMARK minimizedRMSD -1
REMARK  1 active torsions:
REMARK  status: ('A' for Active; 'I' for Inactive)
REMARK    1  A    between atoms: C1_2  and  C2_3 
ROOT
ATOM      1  C2  UNL d   1       0.385  -0.158  -2.363  0.00  0.00    -0.073 A 
ATOM      2  C3  UNL d   1       1.689   0.158  -2.760  0.00  0.00    -0.002 A 
ATOM      3  C4  UNL d   1       2.002   0.291  -4.113  0.00  0.00     0.004 A 
ATOM      4  C5  UNL d   1       1.014   0.116  -5.082  0.00  0.00    -0.004 A 
ATOM      5  C6  UNL d   1      -0.298  -0.189  -4.705  0.00  0.00    -0.075 A 
ATOM      6  C7  UNL d   1      -1.372  -0.383  -5.735  0.00  0.00     0.076 C 
ATOM      7  C8  UNL d   1      -0.603  -0.323  -3.344  0.00  0.00     0.001 A 
ENDROOT
BRANCH   1   8
ATOM      8  C1  UNL d   1       0.041  -0.295  -0.902  0.00  0.00     0.053 C 
ATOM      9  C   UNL d   1       1.146  -0.987  -0.120  0.00  0.00     0.018 C 
ENDBRANCH   1   8
TORSDOF 1
ENDMDL
