MODEL 1
REMARK minimizedAffinity -2.0067513
REMARK minimizedRMSD -1
REMARK  1 active torsions:
REMARK  status: ('A' for Active; 'I' for Inactive)
REMARK    1  A    between atoms: C1_2  and  C2_3 
ROOT
ATOM      1  C2  UNL d   1       1.815   0.796  -3.535  0.00  0.00    -0.073 A 
ATOM      2  C3  UNL d   1       2.536   1.928  -3.932  0.00  0.00    -0.002 A 
ATOM      3  C4  UNL d   1       3.889   1.824  -4.259  0.00  0.00     0.004 A 
ATOM      4  C5  UNL d   1       4.532   0.588  -4.198  0.00  0.00    -0.004 A 
ATOM      5  C6  UNL d   1       3.827  -0.557  -3.816  0.00  0.00    -0.075 A 
ATOM      6  C7  UNL d   1       4.505  -1.893  -3.744  0.00  0.00     0.076 C 
ATOM      7  C8  UNL d   1       2.469  -0.444  -3.487  0.00  0.00     0.001 A 
ENDROOT
BRANCH   1   8
ATOM      8  C1  UNL d   1       0.353   0.902  -3.188  0.00  0.00     0.053 C 
ATOM      9  C   UNL d   1      -0.530   0.235  -4.231  0.00  0.00     0.018 C 
ENDBRANCH   1   8
TORSDOF 1
ENDMDL
