MODEL 1
REMARK minimizedAffinity -3.84184575
REMARK minimizedRMSD -1
REMARK  2 active torsions:
REMARK  status: ('A' for Active; 'I' for Inactive)
REMARK    1  A    between atoms: C1_2  and  C2_3 
REMARK    2  A    between atoms: C2_3  and  C3_4 
ROOT
ATOM      1  C3  UNL d   1      -0.434   2.732  -1.310  0.00  0.00    -0.075 A 
ATOM      2  C4  UNL d   1      -1.348   1.763  -1.747  0.00  0.00     0.002 A 
ATOM      3  C5  UNL d   1      -1.936   1.862  -3.009  0.00  0.00     0.002 A 
ATOM      4  C6  UNL d   1      -1.625   2.933  -3.843  0.00  0.00    -0.004 A 
ATOM      5  C7  UNL d   1      -0.731   3.910  -3.412  0.00  0.00     0.002 A 
ATOM      6  C8  UNL d   1      -0.138   3.812  -2.152  0.00  0.00     0.002 A 
ENDROOT
BRANCH   1   7
ATOM      7  C2  UNL d   1       0.228   2.615   0.043  0.00  0.00     0.056 C 
BRANCH   7   8
ATOM      8  C1  UNL d   1       1.175   3.773   0.376  0.00  0.00     0.007 C 
ATOM      9  C   UNL d   1       2.636   3.350   0.456  0.00  0.00     0.009 C 
ENDBRANCH   7   8
ENDBRANCH   1   7
TORSDOF 2
ENDMDL
