MODEL 1
REMARK minimizedAffinity 2.9837687
REMARK minimizedRMSD -1
REMARK  2 active torsions:
REMARK  status: ('A' for Active; 'I' for Inactive)
REMARK    1  A    between atoms: C1_2  and  C2_3 
REMARK    2  A    between atoms: C2_3  and  C3_4 
ROOT
ATOM      1  C3  UNL d   1       1.421   1.840  -0.277  0.00  0.00    -0.075 A 
ATOM      2  C4  UNL d   1       2.806   1.619  -0.254  0.00  0.00     0.002 A 
ATOM      3  C5  UNL d   1       3.677   2.629   0.154  0.00  0.00     0.002 A 
ATOM      4  C6  UNL d   1       3.178   3.873   0.533  0.00  0.00    -0.004 A 
ATOM      5  C7  UNL d   1       1.806   4.109   0.498  0.00  0.00     0.002 A 
ATOM      6  C8  UNL d   1       0.931   3.099   0.095  0.00  0.00     0.002 A 
ENDROOT
BRANCH   1   7
ATOM      7  C2  UNL d   1       0.470   0.742  -0.689  0.00  0.00     0.056 C 
BRANCH   7   8
ATOM      8  C1  UNL d   1       0.124  -0.239   0.436  0.00  0.00     0.007 C 
ATOM      9  C   UNL d   1      -1.327  -0.148   0.887  0.00  0.00     0.009 C 
ENDBRANCH   7   8
ENDBRANCH   1   7
TORSDOF 2
ENDMDL
