MODEL 1
REMARK minimizedAffinity -2.81951642
REMARK minimizedRMSD -1
REMARK  2 active torsions:
REMARK  status: ('A' for Active; 'I' for Inactive)
REMARK    1  A    between atoms: C1_2  and  C2_3 
REMARK    2  A    between atoms: C2_3  and  C3_4 
ROOT
ATOM      1  C3  UNL d   1      -0.454   0.072  -0.381  0.00  0.00    -0.075 A 
ATOM      2  C4  UNL d   1       0.948   0.088  -0.418  0.00  0.00     0.002 A 
ATOM      3  C5  UNL d   1       1.685  -0.908   0.224  0.00  0.00     0.002 A 
ATOM      4  C6  UNL d   1       1.031  -1.925   0.917  0.00  0.00    -0.004 A 
ATOM      5  C7  UNL d   1      -0.361  -1.941   0.974  0.00  0.00     0.002 A 
ATOM      6  C8  UNL d   1      -1.100  -0.948   0.329  0.00  0.00     0.002 A 
ENDROOT
BRANCH   1   7
ATOM      7  C2  UNL d   1      -1.257   1.130  -1.098  0.00  0.00     0.056 C 
BRANCH   7   8
ATOM      8  C1  UNL d   1      -2.186   0.579  -2.186  0.00  0.00     0.007 C 
ATOM      9  C   UNL d   1      -2.405   1.551  -3.337  0.00  0.00     0.009 C 
ENDBRANCH   7   8
ENDBRANCH   1   7
TORSDOF 2
ENDMDL
