MODEL 1
REMARK minimizedAffinity -3.21669078
REMARK minimizedRMSD -1
REMARK  2 active torsions:
REMARK  status: ('A' for Active; 'I' for Inactive)
REMARK    1  A    between atoms: C1_2  and  C2_3 
REMARK    2  A    between atoms: C2_3  and  C3_4 
ROOT
ATOM      1  C3  UNL d   1      -1.506   2.019  -1.944  0.00  0.00    -0.075 A 
ATOM      2  C4  UNL d   1      -2.260   1.492  -3.002  0.00  0.00     0.002 A 
ATOM      3  C5  UNL d   1      -2.289   2.135  -4.240  0.00  0.00     0.002 A 
ATOM      4  C6  UNL d   1      -1.574   3.316  -4.432  0.00  0.00    -0.004 A 
ATOM      5  C7  UNL d   1      -0.835   3.857  -3.383  0.00  0.00     0.002 A 
ATOM      6  C8  UNL d   1      -0.800   3.213  -2.144  0.00  0.00     0.002 A 
ENDROOT
BRANCH   1   7
ATOM      7  C2  UNL d   1      -1.446   1.312  -0.611  0.00  0.00     0.056 C 
BRANCH   7   8
ATOM      8  C1  UNL d   1      -0.279   0.328  -0.478  0.00  0.00     0.007 C 
ATOM      9  C   UNL d   1      -0.634  -0.919   0.320  0.00  0.00     0.009 C 
ENDBRANCH   7   8
ENDBRANCH   1   7
TORSDOF 2
ENDMDL
