MODEL 1
REMARK minimizedAffinity -5.30203009
REMARK minimizedRMSD -1
REMARK  2 active torsions:
REMARK  status: ('A' for Active; 'I' for Inactive)
REMARK    1  A    between atoms: C1_2  and  C2_3 
REMARK    2  A    between atoms: C2_3  and  C3_4 
ROOT
ATOM      1  C3  UNL d   1       1.675   1.940  -0.387  0.00  0.00    -0.075 A 
ATOM      2  C4  UNL d   1       2.911   2.580  -0.554  0.00  0.00     0.002 A 
ATOM      3  C5  UNL d   1       3.085   3.903  -0.147  0.00  0.00     0.002 A 
ATOM      4  C6  UNL d   1       2.025   4.605   0.422  0.00  0.00    -0.004 A 
ATOM      5  C7  UNL d   1       0.787   3.985   0.578  0.00  0.00     0.002 A 
ATOM      6  C8  UNL d   1       0.612   2.660   0.175  0.00  0.00     0.002 A 
ENDROOT
BRANCH   1   7
ATOM      7  C2  UNL d   1       1.488   0.499  -0.798  0.00  0.00     0.056 C 
BRANCH   7   8
ATOM      8  C1  UNL d   1       0.212  -0.146  -0.248  0.00  0.00     0.007 C 
ATOM      9  C   UNL d   1       0.453  -1.512   0.380  0.00  0.00     0.009 C 
ENDBRANCH   7   8
ENDBRANCH   1   7
TORSDOF 2
ENDMDL
