MODEL 1
REMARK minimizedAffinity -3.27157736
REMARK minimizedRMSD -1
REMARK  2 active torsions:
REMARK  status: ('A' for Active; 'I' for Inactive)
REMARK    1  A    between atoms: C1_2  and  C2_3 
REMARK    2  A    between atoms: C2_3  and  C3_4 
ROOT
ATOM      1  C3  UNL d   1      -0.612   0.227  -0.310  0.00  0.00    -0.075 A 
ATOM      2  C4  UNL d   1       0.546  -0.520  -0.567  0.00  0.00     0.002 A 
ATOM      3  C5  UNL d   1       0.989  -1.477   0.346  0.00  0.00     0.002 A 
ATOM      4  C6  UNL d   1       0.288  -1.691   1.531  0.00  0.00    -0.004 A 
ATOM      5  C7  UNL d   1      -0.855  -0.942   1.805  0.00  0.00     0.002 A 
ATOM      6  C8  UNL d   1      -1.303   0.013   0.890  0.00  0.00     0.002 A 
ENDROOT
BRANCH   1   7
ATOM      7  C2  UNL d   1      -1.114   1.243  -1.308  0.00  0.00     0.056 C 
BRANCH   7   8
ATOM      8  C1  UNL d   1      -2.011   0.654  -2.401  0.00  0.00     0.007 C 
ATOM      9  C   UNL d   1      -2.618   1.710  -3.315  0.00  0.00     0.009 C 
ENDBRANCH   7   8
ENDBRANCH   1   7
TORSDOF 2
ENDMDL
