MODEL 1
REMARK minimizedAffinity -5.68786192
REMARK minimizedRMSD -1
REMARK  2 active torsions:
REMARK  status: ('A' for Active; 'I' for Inactive)
REMARK    1  A    between atoms: C1_2  and  C2_3 
REMARK    2  A    between atoms: C2_3  and  C3_4 
ROOT
ATOM      1  C3  UNL d   1       1.462  -0.214   0.114  0.00  0.00    -0.075 A 
ATOM      2  C4  UNL d   1       2.286  -1.321   0.367  0.00  0.00     0.002 A 
ATOM      3  C5  UNL d   1       1.737  -2.525   0.807  0.00  0.00     0.002 A 
ATOM      4  C6  UNL d   1       0.364  -2.636   1.010  0.00  0.00    -0.004 A 
ATOM      5  C7  UNL d   1      -0.462  -1.538   0.779  0.00  0.00     0.002 A 
ATOM      6  C8  UNL d   1       0.083  -0.332   0.334  0.00  0.00     0.002 A 
ENDROOT
BRANCH   1   7
ATOM      7  C2  UNL d   1       2.046   1.084  -0.391  0.00  0.00     0.056 C 
BRANCH   7   8
ATOM      8  C1  UNL d   1       1.286   2.332   0.073  0.00  0.00     0.007 C 
ATOM      9  C   UNL d   1       2.203   3.494   0.431  0.00  0.00     0.009 C 
ENDBRANCH   7   8
ENDBRANCH   1   7
TORSDOF 2
ENDMDL
