MODEL 1
REMARK minimizedAffinity -5.73281622
REMARK minimizedRMSD -1
REMARK  2 active torsions:
REMARK  status: ('A' for Active; 'I' for Inactive)
REMARK    1  A    between atoms: C1_2  and  C2_3 
REMARK    2  A    between atoms: C2_3  and  C3_4 
ROOT
ATOM      1  C3  UNL d   1       1.464   0.773  -0.358  0.00  0.00    -0.075 A 
ATOM      2  C4  UNL d   1       2.366   1.809  -0.076  0.00  0.00     0.002 A 
ATOM      3  C5  UNL d   1       1.903   3.095   0.203  0.00  0.00     0.002 A 
ATOM      4  C6  UNL d   1       0.537   3.364   0.194  0.00  0.00    -0.004 A 
ATOM      5  C7  UNL d   1      -0.368   2.346  -0.100  0.00  0.00     0.002 A 
ATOM      6  C8  UNL d   1       0.092   1.057  -0.376  0.00  0.00     0.002 A 
ENDROOT
BRANCH   1   7
ATOM      7  C2  UNL d   1       1.957  -0.628  -0.632  0.00  0.00     0.056 C 
BRANCH   7   8
ATOM      8  C1  UNL d   1       1.176  -1.720   0.108  0.00  0.00     0.007 C 
ATOM      9  C   UNL d   1       2.075  -2.748   0.782  0.00  0.00     0.009 C 
ENDBRANCH   7   8
ENDBRANCH   1   7
TORSDOF 2
ENDMDL
