MODEL 1
REMARK minimizedAffinity 12.1966667
REMARK minimizedRMSD -1
REMARK  0 active torsions:
REMARK  status: ('A' for Active; 'I' for Inactive)
ROOT
ATOM      1  C   UNL d   1       0.827  -5.541   0.507  0.00  0.00     0.023 A 
ATOM      2  C1  UNL d   1       0.271  -5.653   1.781  0.00  0.00     0.003 A 
ATOM      3  C2  UNL d   1       1.096  -5.653   2.908  0.00  0.00     0.048 A 
ATOM      4  C3  UNL d   1       2.477  -5.539   2.753  0.00  0.00     0.023 A 
ATOM      5  C4  UNL d   1       3.039  -5.426   1.480  0.00  0.00     0.048 A 
ATOM      6  C5  UNL d   1       2.210  -5.428   0.357  0.00  0.00     0.003 A 
ATOM      7  I   UNL d   1       3.707  -5.538   4.429  0.00  0.00    -0.146 I 
ENDROOT
TORSDOF 0
ENDMDL
