MODEL 1
REMARK minimizedAffinity 2.22630763
REMARK minimizedRMSD -1
REMARK  0 active torsions:
REMARK  status: ('A' for Active; 'I' for Inactive)
ROOT
ATOM      1  C   UNL d   1       1.638   2.334  -3.632  0.00  0.00     0.023 A 
ATOM      2  C1  UNL d   1       2.570   1.414  -4.111  0.00  0.00     0.003 A 
ATOM      3  C2  UNL d   1       2.743   0.190  -3.460  0.00  0.00     0.048 A 
ATOM      4  C3  UNL d   1       1.979  -0.106  -2.332  0.00  0.00     0.023 A 
ATOM      5  C4  UNL d   1       1.045   0.812  -1.849  0.00  0.00     0.048 A 
ATOM      6  C5  UNL d   1       0.876   2.034  -2.503  0.00  0.00     0.003 A 
ATOM      7  I   UNL d   1       2.235  -1.926  -1.361  0.00  0.00    -0.146 I 
ENDROOT
TORSDOF 0
ENDMDL
