MODEL 1
REMARK minimizedAffinity 0.454029888
REMARK minimizedRMSD -1
REMARK  0 active torsions:
REMARK  status: ('A' for Active; 'I' for Inactive)
ROOT
ATOM      1  C   UNL d   1       5.568   2.867  -4.544  0.00  0.00     0.023 A 
ATOM      2  C1  UNL d   1       4.521   3.672  -4.095  0.00  0.00     0.003 A 
ATOM      3  C2  UNL d   1       3.321   3.091  -3.679  0.00  0.00     0.048 A 
ATOM      4  C3  UNL d   1       3.176   1.705  -3.712  0.00  0.00     0.023 A 
ATOM      5  C4  UNL d   1       4.221   0.895  -4.160  0.00  0.00     0.048 A 
ATOM      6  C5  UNL d   1       5.419   1.481  -4.576  0.00  0.00     0.003 A 
ATOM      7  I   UNL d   1       1.391   0.838  -3.093  0.00  0.00    -0.146 I 
ENDROOT
TORSDOF 0
ENDMDL
