MODEL 1
REMARK minimizedAffinity 8.95171165
REMARK minimizedRMSD -1
REMARK  0 active torsions:
REMARK  status: ('A' for Active; 'I' for Inactive)
ROOT
ATOM      1  C   UNL d   1       2.696  -0.866  -1.452  0.00  0.00     0.023 A 
ATOM      2  C1  UNL d   1       1.882  -1.946  -1.110  0.00  0.00     0.003 A 
ATOM      3  C2  UNL d   1       0.507  -1.762  -0.946  0.00  0.00     0.048 A 
ATOM      4  C3  UNL d   1      -0.046  -0.495  -1.126  0.00  0.00     0.023 A 
ATOM      5  C4  UNL d   1       0.764   0.589  -1.469  0.00  0.00     0.048 A 
ATOM      6  C5  UNL d   1       2.138   0.400  -1.631  0.00  0.00     0.003 A 
ATOM      7  I   UNL d   1      -2.092  -0.218  -0.883  0.00  0.00    -0.146 I 
ENDROOT
TORSDOF 0
ENDMDL
