MODEL 1
REMARK minimizedAffinity 8.58640862
REMARK minimizedRMSD -1
REMARK  0 active torsions:
REMARK  status: ('A' for Active; 'I' for Inactive)
ROOT
ATOM      1  C   UNL d   1       2.521  -1.971  -2.000  0.00  0.00     0.023 A 
ATOM      2  C1  UNL d   1       2.222  -1.495  -0.723  0.00  0.00     0.003 A 
ATOM      3  C2  UNL d   1       0.903  -1.196  -0.378  0.00  0.00     0.048 A 
ATOM      4  C3  UNL d   1      -0.114  -1.376  -1.315  0.00  0.00     0.023 A 
ATOM      5  C4  UNL d   1       0.179  -1.853  -2.594  0.00  0.00     0.048 A 
ATOM      6  C5  UNL d   1       1.500  -2.150  -2.934  0.00  0.00     0.003 A 
ATOM      7  I   UNL d   1      -2.080  -0.932  -0.805  0.00  0.00    -0.146 I 
ENDROOT
TORSDOF 0
ENDMDL
