MODEL 1
REMARK minimizedAffinity 3.23295784
REMARK minimizedRMSD -1
REMARK  0 active torsions:
REMARK  status: ('A' for Active; 'I' for Inactive)
ROOT
ATOM      1  C   UNL d   1       0.744   2.539   1.509  0.00  0.00     0.023 A 
ATOM      2  C1  UNL d   1      -0.209   2.310   0.516  0.00  0.00     0.003 A 
ATOM      3  C2  UNL d   1       0.038   1.370  -0.486  0.00  0.00     0.048 A 
ATOM      4  C3  UNL d   1       1.239   0.661  -0.489  0.00  0.00     0.023 A 
ATOM      5  C4  UNL d   1       2.195   0.886   0.503  0.00  0.00     0.048 A 
ATOM      6  C5  UNL d   1       1.944   1.828   1.503  0.00  0.00     0.003 A 
ATOM      7  I   UNL d   1       1.608  -0.739  -1.980  0.00  0.00    -0.146 I 
ENDROOT
TORSDOF 0
ENDMDL
