MODEL 1
REMARK minimizedAffinity -0.253828883
REMARK minimizedRMSD -1
REMARK  0 active torsions:
REMARK  status: ('A' for Active; 'I' for Inactive)
ROOT
ATOM      1  C   UNL d   1       2.814  -2.564  -1.063  0.00  0.00     0.023 A 
ATOM      2  C1  UNL d   1       1.824  -2.462  -0.086  0.00  0.00     0.003 A 
ATOM      3  C2  UNL d   1       0.941  -1.380  -0.095  0.00  0.00     0.048 A 
ATOM      4  C3  UNL d   1       1.053  -0.405  -1.085  0.00  0.00     0.023 A 
ATOM      5  C4  UNL d   1       2.041  -0.503  -2.066  0.00  0.00     0.048 A 
ATOM      6  C5  UNL d   1       2.922  -1.586  -2.052  0.00  0.00     0.003 A 
ATOM      7  I   UNL d   1      -0.261   1.206  -1.101  0.00  0.00    -0.146 I 
ENDROOT
TORSDOF 0
ENDMDL
