MODEL 1
REMARK minimizedAffinity 7.86978579
REMARK minimizedRMSD -1
REMARK  0 active torsions:
REMARK  status: ('A' for Active; 'I' for Inactive)
ROOT
ATOM      1  C   UNL d   1       5.452  -1.795   3.346  0.00  0.00     0.023 A 
ATOM      2  C1  UNL d   1       4.260  -1.071   3.321  0.00  0.00     0.003 A 
ATOM      3  C2  UNL d   1       3.223  -1.461   2.472  0.00  0.00     0.048 A 
ATOM      4  C3  UNL d   1       3.384  -2.575   1.650  0.00  0.00     0.023 A 
ATOM      5  C4  UNL d   1       4.575  -3.303   1.671  0.00  0.00     0.048 A 
ATOM      6  C5  UNL d   1       5.609  -2.910   2.522  0.00  0.00     0.003 A 
ATOM      7  I   UNL d   1       1.841  -3.157   0.384  0.00  0.00    -0.146 I 
ENDROOT
TORSDOF 0
ENDMDL
