MODEL 1
REMARK minimizedAffinity 2.06221867
REMARK minimizedRMSD -1
REMARK  0 active torsions:
REMARK  status: ('A' for Active; 'I' for Inactive)
ROOT
ATOM      1  C   UNL d   1       3.322   1.480  -2.350  0.00  0.00     0.023 A 
ATOM      2  C1  UNL d   1       4.381   0.679  -1.922  0.00  0.00     0.003 A 
ATOM      3  C2  UNL d   1       4.140  -0.627  -1.492  0.00  0.00     0.048 A 
ATOM      4  C3  UNL d   1       2.838  -1.127  -1.493  0.00  0.00     0.023 A 
ATOM      5  C4  UNL d   1       1.775  -0.329  -1.922  0.00  0.00     0.048 A 
ATOM      6  C5  UNL d   1       2.021   0.977  -2.350  0.00  0.00     0.003 A 
ATOM      7  I   UNL d   1       2.477  -3.071  -0.853  0.00  0.00    -0.146 I 
ENDROOT
TORSDOF 0
ENDMDL
