MODEL 1
REMARK minimizedAffinity 4.44450283
REMARK minimizedRMSD -1
REMARK  0 active torsions:
REMARK  status: ('A' for Active; 'I' for Inactive)
ROOT
ATOM      1  C   UNL d   1       2.304  -2.715  -0.847  0.00  0.00     0.023 A 
ATOM      2  C1  UNL d   1       2.164  -2.051  -2.066  0.00  0.00     0.003 A 
ATOM      3  C2  UNL d   1       1.548  -0.799  -2.113  0.00  0.00     0.048 A 
ATOM      4  C3  UNL d   1       1.075  -0.215  -0.938  0.00  0.00     0.023 A 
ATOM      5  C4  UNL d   1       1.214  -0.875   0.284  0.00  0.00     0.048 A 
ATOM      6  C5  UNL d   1       1.830  -2.128   0.326  0.00  0.00     0.003 A 
ATOM      7  I   UNL d   1       0.158   1.648  -1.007  0.00  0.00    -0.146 I 
ENDROOT
TORSDOF 0
ENDMDL
