MODEL 1
REMARK minimizedAffinity -3.17886114
REMARK minimizedRMSD -1
REMARK  0 active torsions:
REMARK  status: ('A' for Active; 'I' for Inactive)
ROOT
ATOM      1  C   UNL d   1       1.999  -0.660  -1.676  0.00  0.00     0.023 A 
ATOM      2  C1  UNL d   1       3.180  -1.266  -1.250  0.00  0.00     0.003 A 
ATOM      3  C2  UNL d   1       3.131  -2.408  -0.448  0.00  0.00     0.048 A 
ATOM      4  C3  UNL d   1       1.897  -2.939  -0.076  0.00  0.00     0.023 A 
ATOM      5  C4  UNL d   1       0.711  -2.336  -0.501  0.00  0.00     0.048 A 
ATOM      6  C5  UNL d   1       0.766  -1.194  -1.302  0.00  0.00     0.003 A 
ATOM      7  I   UNL d   1       1.821  -4.639   1.118  0.00  0.00    -0.146 I 
ENDROOT
TORSDOF 0
ENDMDL
