MODEL 1
REMARK minimizedAffinity 5.08469582
REMARK minimizedRMSD -1
REMARK  0 active torsions:
REMARK  status: ('A' for Active; 'I' for Inactive)
ROOT
ATOM      1  C   UNL d   1       1.924  -0.926  -2.449  0.00  0.00     0.023 A 
ATOM      2  C1  UNL d   1       3.083  -1.295  -1.766  0.00  0.00     0.003 A 
ATOM      3  C2  UNL d   1       3.058  -2.370  -0.875  0.00  0.00     0.048 A 
ATOM      4  C3  UNL d   1       1.870  -3.072  -0.672  0.00  0.00     0.023 A 
ATOM      5  C4  UNL d   1       0.708  -2.707  -1.354  0.00  0.00     0.048 A 
ATOM      6  C5  UNL d   1       0.738  -1.631  -2.243  0.00  0.00     0.003 A 
ATOM      7  I   UNL d   1       1.830  -4.673   0.653  0.00  0.00    -0.146 I 
ENDROOT
TORSDOF 0
ENDMDL
