MODEL 1
REMARK minimizedAffinity 10.7194757
REMARK minimizedRMSD -1
REMARK  0 active torsions:
REMARK  status: ('A' for Active; 'I' for Inactive)
ROOT
ATOM      1  C   UNL d   1       5.590   5.951  -1.671  0.00  0.00     0.023 A 
ATOM      2  C1  UNL d   1       5.999   5.725  -0.357  0.00  0.00     0.003 A 
ATOM      3  C2  UNL d   1       5.266   4.868   0.466  0.00  0.00     0.048 A 
ATOM      4  C3  UNL d   1       4.125   4.239  -0.032  0.00  0.00     0.023 A 
ATOM      5  C4  UNL d   1       3.713   4.461  -1.347  0.00  0.00     0.048 A 
ATOM      6  C5  UNL d   1       4.449   5.320  -2.165  0.00  0.00     0.003 A 
ATOM      7  I   UNL d   1       3.032   2.962   1.191  0.00  0.00    -0.146 I 
ENDROOT
TORSDOF 0
ENDMDL
