MODEL 1
REMARK minimizedAffinity 4.92215586
REMARK minimizedRMSD -1
REMARK  0 active torsions:
REMARK  status: ('A' for Active; 'I' for Inactive)
ROOT
ATOM      1  C   UNL d   1       3.015  -1.270  -2.429  0.00  0.00     0.023 A 
ATOM      2  C1  UNL d   1       2.150  -1.378  -1.340  0.00  0.00     0.003 A 
ATOM      3  C2  UNL d   1       1.375  -0.284  -0.950  0.00  0.00     0.048 A 
ATOM      4  C3  UNL d   1       1.470   0.916  -1.655  0.00  0.00     0.023 A 
ATOM      5  C4  UNL d   1       2.333   1.028  -2.746  0.00  0.00     0.048 A 
ATOM      6  C5  UNL d   1       3.107  -0.068  -3.131  0.00  0.00     0.003 A 
ATOM      7  I   UNL d   1       0.317   2.546  -1.078  0.00  0.00    -0.146 I 
ENDROOT
TORSDOF 0
ENDMDL
