MODEL 1
REMARK minimizedAffinity -1.35131955
REMARK minimizedRMSD -1
REMARK  0 active torsions:
REMARK  status: ('A' for Active; 'I' for Inactive)
ROOT
ATOM      1  C   UNL d   1       1.836  -2.553  -1.029  0.00  0.00     0.023 A 
ATOM      2  C1  UNL d   1       2.524  -1.591  -1.768  0.00  0.00     0.003 A 
ATOM      3  C2  UNL d   1       1.999  -0.304  -1.901  0.00  0.00     0.048 A 
ATOM      4  C3  UNL d   1       0.786   0.015  -1.292  0.00  0.00     0.023 A 
ATOM      5  C4  UNL d   1       0.095  -0.944  -0.550  0.00  0.00     0.048 A 
ATOM      6  C5  UNL d   1       0.623  -2.230  -0.421  0.00  0.00     0.003 A 
ATOM      7  I   UNL d   1       0.003   1.930  -1.488  0.00  0.00    -0.146 I 
ENDROOT
TORSDOF 0
ENDMDL
