MODEL 1
REMARK minimizedAffinity 2.58353853
REMARK minimizedRMSD -1
REMARK  0 active torsions:
REMARK  status: ('A' for Active; 'I' for Inactive)
ROOT
ATOM      1  C   UNL d   1       2.781  -4.785   0.776  0.00  0.00     0.023 A 
ATOM      2  C1  UNL d   1       3.239  -4.571  -0.524  0.00  0.00     0.003 A 
ATOM      3  C2  UNL d   1       2.664  -3.573  -1.313  0.00  0.00     0.048 A 
ATOM      4  C3  UNL d   1       1.632  -2.791  -0.795  0.00  0.00     0.023 A 
ATOM      5  C4  UNL d   1       1.171  -3.001   0.506  0.00  0.00     0.048 A 
ATOM      6  C5  UNL d   1       1.749  -4.001   1.290  0.00  0.00     0.003 A 
ATOM      7  I   UNL d   1       0.775  -1.304  -1.967  0.00  0.00    -0.146 I 
ENDROOT
TORSDOF 0
ENDMDL
