MODEL 1
REMARK minimizedAffinity -4.67712212
REMARK minimizedRMSD -1
REMARK  1 active torsions:
REMARK  status: ('A' for Active; 'I' for Inactive)
REMARK    1  A    between atoms: C1_2  and  C2_3 
ROOT
ATOM      1  C2  UNL d   1       0.076   0.176   0.204  0.00  0.00    -0.076 A 
ATOM      2  C3  UNL d   1       1.019   0.935   0.919  0.00  0.00     0.004 A 
ATOM      3  C4  UNL d   1       2.211   0.364   1.362  0.00  0.00    -0.003 A 
ATOM      4  C5  UNL d   1       2.480  -0.974   1.096  0.00  0.00     0.000 A 
ATOM      5  C6  UNL d   1       1.564  -1.736   0.372  0.00  0.00     0.000 A 
ATOM      6  C7  UNL d   1       0.364  -1.172  -0.095  0.00  0.00    -0.073 A 
ATOM      7  C8  UNL d   1      -0.591  -2.043  -0.865  0.00  0.00     0.078 C 
ENDROOT
BRANCH   1   8
ATOM      8  C1  UNL d   1      -1.212   0.841  -0.226  0.00  0.00     0.053 C 
ATOM      9  C   UNL d   1      -2.297   0.753   0.836  0.00  0.00     0.018 C 
ENDBRANCH   1   8
TORSDOF 1
ENDMDL
