MODEL 1
REMARK minimizedAffinity -1.5804044
REMARK minimizedRMSD -1
REMARK  1 active torsions:
REMARK  status: ('A' for Active; 'I' for Inactive)
REMARK    1  A    between atoms: C1_2  and  C2_3 
ROOT
ATOM      1  C2  UNL d   1       1.131  -1.108  -0.261  0.00  0.00    -0.076 A 
ATOM      2  C3  UNL d   1       1.429   0.219   0.094  0.00  0.00     0.004 A 
ATOM      3  C4  UNL d   1       0.441   1.202   0.092  0.00  0.00    -0.003 A 
ATOM      4  C5  UNL d   1      -0.862   0.873  -0.265  0.00  0.00     0.000 A 
ATOM      5  C6  UNL d   1      -1.179  -0.442  -0.604  0.00  0.00     0.000 A 
ATOM      6  C7  UNL d   1      -0.198  -1.448  -0.591  0.00  0.00    -0.073 A 
ATOM      7  C8  UNL d   1      -0.595  -2.848  -0.971  0.00  0.00     0.078 C 
ENDROOT
BRANCH   1   8
ATOM      8  C1  UNL d   1       2.250  -2.125  -0.267  0.00  0.00     0.053 C 
ATOM      9  C   UNL d   1       3.594  -1.514   0.098  0.00  0.00     0.018 C 
ENDBRANCH   1   8
TORSDOF 1
ENDMDL
