MODEL 1
REMARK minimizedAffinity -3.9707849
REMARK minimizedRMSD -1
REMARK  1 active torsions:
REMARK  status: ('A' for Active; 'I' for Inactive)
REMARK    1  A    between atoms: C1_2  and  C2_3 
ROOT
ATOM      1  C2  UNL d   1       0.688   0.206   0.030  0.00  0.00    -0.076 A 
ATOM      2  C3  UNL d   1       1.388   0.562   1.195  0.00  0.00     0.004 A 
ATOM      3  C4  UNL d   1       2.231  -0.348   1.832  0.00  0.00    -0.003 A 
ATOM      4  C5  UNL d   1       2.387  -1.629   1.312  0.00  0.00     0.000 A 
ATOM      5  C6  UNL d   1       1.714  -1.993   0.147  0.00  0.00     0.000 A 
ATOM      6  C7  UNL d   1       0.873  -1.082  -0.516  0.00  0.00    -0.073 A 
ATOM      7  C8  UNL d   1       0.167  -1.530  -1.767  0.00  0.00     0.078 C 
ENDROOT
BRANCH   1   8
ATOM      8  C1  UNL d   1      -0.232   1.226  -0.602  0.00  0.00     0.053 C 
ATOM      9  C   UNL d   1      -1.686   1.024  -0.203  0.00  0.00     0.018 C 
ENDBRANCH   1   8
TORSDOF 1
ENDMDL
