MODEL 1
REMARK minimizedAffinity -4.41763592
REMARK minimizedRMSD -1
REMARK  1 active torsions:
REMARK  status: ('A' for Active; 'I' for Inactive)
REMARK    1  A    between atoms: C1_2  and  C2_3 
ROOT
ATOM      1  C2  UNL d   1       1.187   0.285  -0.069  0.00  0.00    -0.076 A 
ATOM      2  C3  UNL d   1       1.277   1.680   0.072  0.00  0.00     0.004 A 
ATOM      3  C4  UNL d   1       2.513   2.308   0.219  0.00  0.00    -0.003 A 
ATOM      4  C5  UNL d   1       3.679   1.550   0.227  0.00  0.00     0.000 A 
ATOM      5  C6  UNL d   1       3.609   0.166   0.072  0.00  0.00     0.000 A 
ATOM      6  C7  UNL d   1       2.372  -0.481  -0.094  0.00  0.00    -0.073 A 
ATOM      7  C8  UNL d   1       2.355  -1.977  -0.252  0.00  0.00     0.078 C 
ENDROOT
BRANCH   1   8
ATOM      8  C1  UNL d   1      -0.183  -0.343  -0.198  0.00  0.00     0.053 C 
ATOM      9  C   UNL d   1      -1.305   0.671  -0.043  0.00  0.00     0.018 C 
ENDBRANCH   1   8
TORSDOF 1
ENDMDL
