MODEL 1
REMARK minimizedAffinity -5.91024828
REMARK minimizedRMSD -1
REMARK  1 active torsions:
REMARK  status: ('A' for Active; 'I' for Inactive)
REMARK    1  A    between atoms: C1_2  and  C2_3 
ROOT
ATOM      1  C2  UNL d   1       0.140   0.350  -0.367  0.00  0.00    -0.076 A 
ATOM      2  C3  UNL d   1       1.140   0.799   0.513  0.00  0.00     0.004 A 
ATOM      3  C4  UNL d   1       2.180  -0.042   0.906  0.00  0.00    -0.003 A 
ATOM      4  C5  UNL d   1       2.237  -1.345   0.425  0.00  0.00     0.000 A 
ATOM      5  C6  UNL d   1       1.263  -1.801  -0.463  0.00  0.00     0.000 A 
ATOM      6  C7  UNL d   1       0.217  -0.962  -0.882  0.00  0.00    -0.073 A 
ATOM      7  C8  UNL d   1      -0.810  -1.508  -1.836  0.00  0.00     0.078 C 
ENDROOT
BRANCH   1   8
ATOM      8  C1  UNL d   1      -0.979   1.298  -0.736  0.00  0.00     0.053 C 
ATOM      9  C   UNL d   1      -2.227   1.083   0.105  0.00  0.00     0.018 C 
ENDBRANCH   1   8
TORSDOF 1
ENDMDL
