MODEL 1
REMARK minimizedAffinity -4.75267649
REMARK minimizedRMSD -1
REMARK  1 active torsions:
REMARK  status: ('A' for Active; 'I' for Inactive)
REMARK    1  A    between atoms: C1_2  and  C2_3 
ROOT
ATOM      1  C2  UNL d   1       0.137  -1.118  -0.304  0.00  0.00    -0.076 A 
ATOM      2  C3  UNL d   1      -0.828  -0.137  -0.014  0.00  0.00     0.004 A 
ATOM      3  C4  UNL d   1      -0.504   0.984   0.748  0.00  0.00    -0.003 A 
ATOM      4  C5  UNL d   1       0.790   1.143   1.232  0.00  0.00     0.000 A 
ATOM      5  C6  UNL d   1       1.764   0.189   0.939  0.00  0.00     0.000 A 
ATOM      6  C7  UNL d   1       1.458  -0.939   0.159  0.00  0.00    -0.073 A 
ATOM      7  C8  UNL d   1       2.546  -1.940  -0.121  0.00  0.00     0.078 C 
ENDROOT
BRANCH   1   8
ATOM      8  C1  UNL d   1      -0.279  -2.326  -1.112  0.00  0.00     0.053 C 
ATOM      9  C   UNL d   1      -0.862  -1.950  -2.465  0.00  0.00     0.018 C 
ENDBRANCH   1   8
TORSDOF 1
ENDMDL
