MODEL 1
REMARK minimizedAffinity 4.37135696
REMARK minimizedRMSD -1
REMARK  2 active torsions:
REMARK  status: ('A' for Active; 'I' for Inactive)
REMARK    1  A    between atoms: C1_2  and  C2_3 
REMARK    2  A    between atoms: C2_3  and  C3_4 
ROOT
ATOM      1  C3  UNL d   1      -5.406   3.379  -2.469  0.00  0.00    -0.075 A 
ATOM      2  C4  UNL d   1      -5.810   2.565  -3.536  0.00  0.00     0.002 A 
ATOM      3  C5  UNL d   1      -5.997   3.106  -4.809  0.00  0.00     0.002 A 
ATOM      4  C6  UNL d   1      -5.793   4.467  -5.027  0.00  0.00    -0.004 A 
ATOM      5  C7  UNL d   1      -5.407   5.288  -3.970  0.00  0.00     0.002 A 
ATOM      6  C8  UNL d   1      -5.215   4.749  -2.697  0.00  0.00     0.002 A 
ENDROOT
BRANCH   1   7
ATOM      7  C2  UNL d   1      -5.173   2.795  -1.096  0.00  0.00     0.056 C 
BRANCH   7   8
ATOM      8  C1  UNL d   1      -4.123   1.679  -1.063  0.00  0.00     0.007 C 
ATOM      9  C   UNL d   1      -3.655   1.336   0.345  0.00  0.00     0.009 C 
ENDBRANCH   7   8
ENDBRANCH   1   7
TORSDOF 2
ENDMDL
