MODEL 1
REMARK minimizedAffinity 8.56841373
REMARK minimizedRMSD -1
REMARK  2 active torsions:
REMARK  status: ('A' for Active; 'I' for Inactive)
REMARK    1  A    between atoms: C1_2  and  C2_3 
REMARK    2  A    between atoms: C2_3  and  C3_4 
ROOT
ATOM      1  C3  UNL d   1       0.279   2.558   2.786  0.00  0.00    -0.075 A 
ATOM      2  C4  UNL d   1       1.582   2.049   2.886  0.00  0.00     0.002 A 
ATOM      3  C5  UNL d   1       1.851   0.945   3.695  0.00  0.00     0.002 A 
ATOM      4  C6  UNL d   1       0.826   0.344   4.422  0.00  0.00    -0.004 A 
ATOM      5  C7  UNL d   1      -0.469   0.851   4.343  0.00  0.00     0.002 A 
ATOM      6  C8  UNL d   1      -0.743   1.952   3.530  0.00  0.00     0.002 A 
ENDROOT
BRANCH   1   7
ATOM      7  C2  UNL d   1      -0.025   3.734   1.889  0.00  0.00     0.056 C 
BRANCH   7   8
ATOM      8  C1  UNL d   1       0.231   3.466   0.402  0.00  0.00     0.007 C 
ATOM      9  C   UNL d   1       0.846   4.655  -0.325  0.00  0.00     0.009 C 
ENDBRANCH   7   8
ENDBRANCH   1   7
TORSDOF 2
ENDMDL
