MODEL 1
REMARK minimizedAffinity 6.81250906
REMARK minimizedRMSD -1
REMARK  2 active torsions:
REMARK  status: ('A' for Active; 'I' for Inactive)
REMARK    1  A    between atoms: C1_2  and  C2_3 
REMARK    2  A    between atoms: C2_3  and  C3_4 
ROOT
ATOM      1  C3  UNL d   1      -0.356   3.750   1.496  0.00  0.00    -0.075 A 
ATOM      2  C4  UNL d   1      -1.062   4.909   1.849  0.00  0.00     0.002 A 
ATOM      3  C5  UNL d   1      -1.114   5.998   0.979  0.00  0.00     0.002 A 
ATOM      4  C6  UNL d   1      -0.455   5.947  -0.247  0.00  0.00    -0.004 A 
ATOM      5  C7  UNL d   1       0.263   4.806  -0.601  0.00  0.00     0.002 A 
ATOM      6  C8  UNL d   1       0.313   3.713   0.266  0.00  0.00     0.002 A 
ENDROOT
BRANCH   1   7
ATOM      7  C2  UNL d   1      -0.320   2.556   2.421  0.00  0.00     0.056 C 
BRANCH   7   8
ATOM      8  C1  UNL d   1       1.074   2.234   2.970  0.00  0.00     0.007 C 
ATOM      9  C   UNL d   1       1.068   1.121   4.009  0.00  0.00     0.009 C 
ENDBRANCH   7   8
ENDBRANCH   1   7
TORSDOF 2
ENDMDL
