MODEL 1
REMARK minimizedAffinity 12.1907063
REMARK minimizedRMSD -1
REMARK  2 active torsions:
REMARK  status: ('A' for Active; 'I' for Inactive)
REMARK    1  A    between atoms: C1_2  and  C2_3 
REMARK    2  A    between atoms: C2_3  and  C3_4 
ROOT
ATOM      1  C3  UNL d   1      -0.367   1.832  -0.332  0.00  0.00    -0.075 A 
ATOM      2  C4  UNL d   1       0.553   0.962  -0.935  0.00  0.00     0.002 A 
ATOM      3  C5  UNL d   1       0.111  -0.107  -1.715  0.00  0.00     0.002 A 
ATOM      4  C6  UNL d   1      -1.254  -0.325  -1.894  0.00  0.00    -0.004 A 
ATOM      5  C7  UNL d   1      -2.177   0.523  -1.286  0.00  0.00     0.002 A 
ATOM      6  C8  UNL d   1      -1.737   1.596  -0.509  0.00  0.00     0.002 A 
ENDROOT
BRANCH   1   7
ATOM      7  C2  UNL d   1       0.106   3.008   0.489  0.00  0.00     0.056 C 
BRANCH   7   8
ATOM      8  C1  UNL d   1       0.444   4.251  -0.340  0.00  0.00     0.007 C 
ATOM      9  C   UNL d   1       0.002   5.551   0.320  0.00  0.00     0.009 C 
ENDBRANCH   7   8
ENDBRANCH   1   7
TORSDOF 2
ENDMDL
