MODEL 1
REMARK minimizedAffinity 6.71845293
REMARK minimizedRMSD -1
REMARK  2 active torsions:
REMARK  status: ('A' for Active; 'I' for Inactive)
REMARK    1  A    between atoms: C1_2  and  C2_3 
REMARK    2  A    between atoms: C2_3  and  C3_4 
ROOT
ATOM      1  C3  UNL d   1       1.167   3.785   1.218  0.00  0.00    -0.075 A 
ATOM      2  C4  UNL d   1       1.166   3.244   2.512  0.00  0.00     0.002 A 
ATOM      3  C5  UNL d   1       2.031   3.740   3.487  0.00  0.00     0.002 A 
ATOM      4  C6  UNL d   1       2.913   4.774   3.180  0.00  0.00    -0.004 A 
ATOM      5  C7  UNL d   1       2.934   5.308   1.894  0.00  0.00     0.002 A 
ATOM      6  C8  UNL d   1       2.066   4.817   0.917  0.00  0.00     0.002 A 
ENDROOT
BRANCH   1   7
ATOM      7  C2  UNL d   1       0.213   3.273   0.165  0.00  0.00     0.056 C 
BRANCH   7   8
ATOM      8  C1  UNL d   1      -0.006   4.241  -1.002  0.00  0.00     0.007 C 
ATOM      9  C   UNL d   1      -1.375   4.909  -0.979  0.00  0.00     0.009 C 
ENDBRANCH   7   8
ENDBRANCH   1   7
TORSDOF 2
ENDMDL
