MODEL 1
REMARK minimizedAffinity 9.72029209
REMARK minimizedRMSD -1
REMARK  2 active torsions:
REMARK  status: ('A' for Active; 'I' for Inactive)
REMARK    1  A    between atoms: C1_2  and  C2_3 
REMARK    2  A    between atoms: C2_3  and  C3_4 
ROOT
ATOM      1  C3  UNL d   1       0.736   4.020   0.760  0.00  0.00    -0.075 A 
ATOM      2  C4  UNL d   1      -0.633   4.220   0.532  0.00  0.00     0.002 A 
ATOM      3  C5  UNL d   1      -1.068   5.201  -0.360  0.00  0.00     0.002 A 
ATOM      4  C6  UNL d   1      -0.141   6.000  -1.027  0.00  0.00    -0.004 A 
ATOM      5  C7  UNL d   1       1.221   5.821  -0.796  0.00  0.00     0.002 A 
ATOM      6  C8  UNL d   1       1.659   4.838   0.093  0.00  0.00     0.002 A 
ENDROOT
BRANCH   1   7
ATOM      7  C2  UNL d   1       1.213   2.941   1.701  0.00  0.00     0.056 C 
BRANCH   7   8
ATOM      8  C1  UNL d   1       0.189   2.550   2.772  0.00  0.00     0.007 C 
ATOM      9  C   UNL d   1       0.696   1.474   3.723  0.00  0.00     0.009 C 
ENDBRANCH   7   8
ENDBRANCH   1   7
TORSDOF 2
ENDMDL
