MODEL 1
REMARK minimizedAffinity 14.3250914
REMARK minimizedRMSD -1
REMARK  2 active torsions:
REMARK  status: ('A' for Active; 'I' for Inactive)
REMARK    1  A    between atoms: C1_2  and  C2_3 
REMARK    2  A    between atoms: C2_3  and  C3_4 
ROOT
ATOM      1  C3  UNL d   1       1.051   0.111   3.702  0.00  0.00    -0.075 A 
ATOM      2  C4  UNL d   1       2.252   0.682   3.259  0.00  0.00     0.002 A 
ATOM      3  C5  UNL d   1       2.247   1.890   2.560  0.00  0.00     0.002 A 
ATOM      4  C6  UNL d   1       1.043   2.535   2.287  0.00  0.00    -0.004 A 
ATOM      5  C7  UNL d   1      -0.158   1.968   2.708  0.00  0.00     0.002 A 
ATOM      6  C8  UNL d   1      -0.156   0.762   3.411  0.00  0.00     0.002 A 
ENDROOT
BRANCH   1   7
ATOM      7  C2  UNL d   1       1.052  -1.181   4.484  0.00  0.00     0.056 C 
BRANCH   7   8
ATOM      8  C1  UNL d   1       2.078  -2.207   3.992  0.00  0.00     0.007 C 
ATOM      9  C   UNL d   1       3.222  -2.430   4.972  0.00  0.00     0.009 C 
ENDBRANCH   7   8
ENDBRANCH   1   7
TORSDOF 2
ENDMDL
