MODEL 1
REMARK minimizedAffinity 10.4634352
REMARK minimizedRMSD -1
REMARK  2 active torsions:
REMARK  status: ('A' for Active; 'I' for Inactive)
REMARK    1  A    between atoms: C1_2  and  C2_3 
REMARK    2  A    between atoms: C2_3  and  C3_4 
ROOT
ATOM      1  C3  UNL d   1       1.007   4.730  -0.414  0.00  0.00    -0.075 A 
ATOM      2  C4  UNL d   1      -0.012   3.770  -0.338  0.00  0.00     0.002 A 
ATOM      3  C5  UNL d   1      -0.090   2.904   0.753  0.00  0.00     0.002 A 
ATOM      4  C6  UNL d   1       0.853   2.981   1.776  0.00  0.00    -0.004 A 
ATOM      5  C7  UNL d   1       1.879   3.921   1.703  0.00  0.00     0.002 A 
ATOM      6  C8  UNL d   1       1.957   4.791   0.614  0.00  0.00     0.002 A 
ENDROOT
BRANCH   1   7
ATOM      7  C2  UNL d   1       1.079   5.689  -1.578  0.00  0.00     0.056 C 
BRANCH   7   8
ATOM      8  C1  UNL d   1       1.024   5.009  -2.950  0.00  0.00     0.007 C 
ATOM      9  C   UNL d   1       0.993   5.997  -4.109  0.00  0.00     0.009 C 
ENDBRANCH   7   8
ENDBRANCH   1   7
TORSDOF 2
ENDMDL
