MODEL 1
REMARK minimizedAffinity -1.59835839
REMARK minimizedRMSD -1
REMARK  0 active torsions:
REMARK  status: ('A' for Active; 'I' for Inactive)
ROOT
ATOM      1  C1  BNZ d   1       0.077  -0.216   0.128  0.00  0.00     0.000 A 
ATOM      2  C2  BNZ d   1       1.002  -0.015  -0.862  0.00  0.00     0.000 A 
ATOM      3  C3  BNZ d   1       2.244   0.474  -0.570  0.00  0.00     0.000 A 
ATOM      4  C4  BNZ d   1       2.547   0.798   0.704  0.00  0.00     0.000 A 
ATOM      5  C5  BNZ d   1       1.622   0.609   1.712  0.00  0.00     0.000 A 
ATOM      6  C6  BNZ d   1       0.386   0.081   1.419  0.00  0.00     0.000 A 
ENDROOT
TORSDOF 0
ENDMDL
