MODEL 1
REMARK minimizedAffinity -4.70545959
REMARK minimizedRMSD -1
REMARK  0 active torsions:
REMARK  status: ('A' for Active; 'I' for Inactive)
ROOT
ATOM      1  C1  BNZ d   1       0.126   1.715   2.413  0.00  0.00     0.000 A 
ATOM      2  C2  BNZ d   1       0.485   1.322   1.151  0.00  0.00     0.000 A 
ATOM      3  C3  BNZ d   1      -0.343   0.534   0.401  0.00  0.00     0.000 A 
ATOM      4  C4  BNZ d   1      -1.509   0.107   0.929  0.00  0.00     0.000 A 
ATOM      5  C5  BNZ d   1      -1.881   0.487   2.203  0.00  0.00     0.000 A 
ATOM      6  C6  BNZ d   1      -1.063   1.312   2.940  0.00  0.00     0.000 A 
ENDROOT
TORSDOF 0
ENDMDL
