MODEL 1
REMARK minimizedAffinity -0.759120524
REMARK minimizedRMSD -1
REMARK  0 active torsions:
REMARK  status: ('A' for Active; 'I' for Inactive)
ROOT
ATOM      1  C1  BNZ d   1       0.847  -0.391  -0.602  0.00  0.00     0.000 A 
ATOM      2  C2  BNZ d   1       1.758   0.054   0.319  0.00  0.00     0.000 A 
ATOM      3  C3  BNZ d   1       1.405   0.221   1.629  0.00  0.00     0.000 A 
ATOM      4  C4  BNZ d   1       0.133  -0.019   2.008  0.00  0.00     0.000 A 
ATOM      5  C5  BNZ d   1      -0.799  -0.459   1.090  0.00  0.00     0.000 A 
ATOM      6  C6  BNZ d   1      -0.431  -0.663  -0.220  0.00  0.00     0.000 A 
ENDROOT
TORSDOF 0
ENDMDL
