MODEL 1
REMARK minimizedAffinity -3.70606947
REMARK minimizedRMSD -1
REMARK  0 active torsions:
REMARK  status: ('A' for Active; 'I' for Inactive)
ROOT
ATOM      1  C1  BNZ d   1      -1.380  -0.031   0.844  0.00  0.00     0.000 A 
ATOM      2  C2  BNZ d   1      -1.757   0.340   2.107  0.00  0.00     0.000 A 
ATOM      3  C3  BNZ d   1      -0.858   0.903   2.969  0.00  0.00     0.000 A 
ATOM      4  C4  BNZ d   1       0.425   1.056   2.582  0.00  0.00     0.000 A 
ATOM      5  C5  BNZ d   1       0.823   0.678   1.316  0.00  0.00     0.000 A 
ATOM      6  C6  BNZ d   1      -0.094   0.148   0.437  0.00  0.00     0.000 A 
ENDROOT
TORSDOF 0
ENDMDL
