MODEL 1
REMARK minimizedAffinity -4.25105
REMARK minimizedRMSD -1
REMARK  0 active torsions:
REMARK  status: ('A' for Active; 'I' for Inactive)
ROOT
ATOM      1  C1  BNZ d   1      -3.419  -3.591  -1.605  0.00  0.00     0.000 A 
ATOM      2  C2  BNZ d   1      -2.051  -3.649  -1.619  0.00  0.00     0.000 A 
ATOM      3  C3  BNZ d   1      -1.302  -2.610  -1.143  0.00  0.00     0.000 A 
ATOM      4  C4  BNZ d   1      -1.919  -1.499  -0.692  0.00  0.00     0.000 A 
ATOM      5  C5  BNZ d   1      -3.298  -1.422  -0.680  0.00  0.00     0.000 A 
ATOM      6  C6  BNZ d   1      -4.050  -2.485  -1.123  0.00  0.00     0.000 A 
ENDROOT
TORSDOF 0
ENDMDL
