MODEL 1
REMARK minimizedAffinity -3.66438317
REMARK minimizedRMSD -1
REMARK  0 active torsions:
REMARK  status: ('A' for Active; 'I' for Inactive)
ROOT
ATOM      1  C   UNL d   1      -0.125   0.156   2.626  0.00  0.00     0.023 A 
ATOM      2  C1  UNL d   1       1.169   0.442   2.193  0.00  0.00     0.003 A 
ATOM      3  C2  UNL d   1       1.469   0.431   0.829  0.00  0.00     0.048 A 
ATOM      4  C3  UNL d   1       0.469   0.134  -0.096  0.00  0.00     0.023 A 
ATOM      5  C4  UNL d   1      -0.828  -0.152   0.333  0.00  0.00     0.048 A 
ATOM      6  C5  UNL d   1      -1.123  -0.140   1.698  0.00  0.00     0.003 A 
ATOM      7  I   UNL d   1       0.912   0.116  -2.126  0.00  0.00    -0.146 I 
ENDROOT
TORSDOF 0
ENDMDL
