MODEL 1
REMARK minimizedAffinity -4.32528925
REMARK minimizedRMSD -1
REMARK  0 active torsions:
REMARK  status: ('A' for Active; 'I' for Inactive)
ROOT
ATOM      1  C   UNL d   1       0.037  -0.050   2.938  0.00  0.00     0.023 A 
ATOM      2  C1  UNL d   1       1.241   0.287   2.320  0.00  0.00     0.003 A 
ATOM      3  C2  UNL d   1       1.315   0.366   0.928  0.00  0.00     0.048 A 
ATOM      4  C3  UNL d   1       0.180   0.109   0.160  0.00  0.00     0.023 A 
ATOM      5  C4  UNL d   1      -1.028  -0.227   0.774  0.00  0.00     0.048 A 
ATOM      6  C5  UNL d   1      -1.096  -0.306   2.166  0.00  0.00     0.003 A 
ATOM      7  I   UNL d   1       0.286   0.226  -1.912  0.00  0.00    -0.146 I 
ENDROOT
TORSDOF 0
ENDMDL
