MODEL 1
REMARK minimizedAffinity -4.77341938
REMARK minimizedRMSD -1
REMARK  0 active torsions:
REMARK  status: ('A' for Active; 'I' for Inactive)
ROOT
ATOM      1  C   UNL d   1      -1.637  -0.495   3.307  0.00  0.00     0.023 A 
ATOM      2  C1  UNL d   1      -0.271  -0.727   3.142  0.00  0.00     0.003 A 
ATOM      3  C2  UNL d   1       0.300  -0.663   1.869  0.00  0.00     0.048 A 
ATOM      4  C3  UNL d   1      -0.500  -0.366   0.766  0.00  0.00     0.023 A 
ATOM      5  C4  UNL d   1      -1.866  -0.132   0.927  0.00  0.00     0.048 A 
ATOM      6  C5  UNL d   1      -2.433  -0.198   2.201  0.00  0.00     0.003 A 
ATOM      7  I   UNL d   1       0.349  -0.270  -1.129  0.00  0.00    -0.146 I 
ENDROOT
TORSDOF 0
ENDMDL
