MODEL 1
REMARK minimizedAffinity -3.71755815
REMARK minimizedRMSD -1
REMARK  0 active torsions:
REMARK  status: ('A' for Active; 'I' for Inactive)
ROOT
ATOM      1  C   UNL d   1      -0.501  -1.040  -2.293  0.00  0.00     0.023 A 
ATOM      2  C1  UNL d   1       0.127  -0.037  -1.556  0.00  0.00     0.003 A 
ATOM      3  C2  UNL d   1       1.477   0.247  -1.769  0.00  0.00     0.048 A 
ATOM      4  C3  UNL d   1       2.194  -0.476  -2.722  0.00  0.00     0.023 A 
ATOM      5  C4  UNL d   1       1.570  -1.480  -3.463  0.00  0.00     0.048 A 
ATOM      6  C5  UNL d   1       0.219  -1.761  -3.246  0.00  0.00     0.003 A 
ATOM      7  I   UNL d   1       4.204  -0.055  -3.041  0.00  0.00    -0.146 I 
ENDROOT
TORSDOF 0
ENDMDL
