MODEL 1
REMARK minimizedAffinity -3.0928967
REMARK minimizedRMSD -1
REMARK  0 active torsions:
REMARK  status: ('A' for Active; 'I' for Inactive)
ROOT
ATOM      1  C   UNL d   1       0.333   0.278   1.652  0.00  0.00     0.023 A 
ATOM      2  C1  UNL d   1      -0.689  -0.157   0.806  0.00  0.00     0.003 A 
ATOM      3  C2  UNL d   1      -0.420  -0.416  -0.539  0.00  0.00     0.048 A 
ATOM      4  C3  UNL d   1       0.872  -0.240  -1.033  0.00  0.00     0.023 A 
ATOM      5  C4  UNL d   1       1.898   0.194  -0.190  0.00  0.00     0.048 A 
ATOM      6  C5  UNL d   1       1.624   0.452   1.154  0.00  0.00     0.003 A 
ATOM      7  I   UNL d   1       1.275  -0.625  -3.035  0.00  0.00    -0.146 I 
ENDROOT
TORSDOF 0
ENDMDL
