MODEL 1
REMARK minimizedAffinity -2.76396251
REMARK minimizedRMSD -1
REMARK  0 active torsions:
REMARK  status: ('A' for Active; 'I' for Inactive)
ROOT
ATOM      1  C   UNL d   1      -0.235   0.061   3.123  0.00  0.00     0.023 A 
ATOM      2  C1  UNL d   1      -0.946  -0.854   2.347  0.00  0.00     0.003 A 
ATOM      3  C2  UNL d   1      -0.703  -0.946   0.976  0.00  0.00     0.048 A 
ATOM      4  C3  UNL d   1       0.254  -0.121   0.386  0.00  0.00     0.023 A 
ATOM      5  C4  UNL d   1       0.969   0.795   1.158  0.00  0.00     0.048 A 
ATOM      6  C5  UNL d   1       0.722   0.885   2.530  0.00  0.00     0.003 A 
ATOM      7  I   UNL d   1       0.618  -0.257  -1.656  0.00  0.00    -0.146 I 
ENDROOT
TORSDOF 0
ENDMDL
