MODEL 1
REMARK minimizedAffinity -5.40907001
REMARK minimizedRMSD -1
REMARK  0 active torsions:
REMARK  status: ('A' for Active; 'I' for Inactive)
ROOT
ATOM      1  C   UNL d   1      -1.217  -0.209   2.899  0.00  0.00     0.023 A 
ATOM      2  C1  UNL d   1      -2.075  -0.204   1.799  0.00  0.00     0.003 A 
ATOM      3  C2  UNL d   1      -1.558  -0.074   0.508  0.00  0.00     0.048 A 
ATOM      4  C3  UNL d   1      -0.181   0.049   0.325  0.00  0.00     0.023 A 
ATOM      5  C4  UNL d   1       0.682   0.043   1.422  0.00  0.00     0.048 A 
ATOM      6  C5  UNL d   1       0.160  -0.085   2.710  0.00  0.00     0.003 A 
ATOM      7  I   UNL d   1       0.592   0.242  -1.595  0.00  0.00    -0.146 I 
ENDROOT
TORSDOF 0
ENDMDL
