MODEL 1
REMARK minimizedAffinity -4.0156889
REMARK minimizedRMSD -1
REMARK  0 active torsions:
REMARK  status: ('A' for Active; 'I' for Inactive)
ROOT
ATOM      1  C   UNL d   1      -0.740  -0.574   3.244  0.00  0.00     0.023 A 
ATOM      2  C1  UNL d   1      -1.273  -1.471   2.318  0.00  0.00     0.003 A 
ATOM      3  C2  UNL d   1      -0.964  -1.343   0.963  0.00  0.00     0.048 A 
ATOM      4  C3  UNL d   1      -0.119  -0.317   0.540  0.00  0.00     0.023 A 
ATOM      5  C4  UNL d   1       0.417   0.582   1.463  0.00  0.00     0.048 A 
ATOM      6  C5  UNL d   1       0.104   0.451   2.817  0.00  0.00     0.003 A 
ATOM      7  I   UNL d   1       0.343  -0.126  -1.477  0.00  0.00    -0.146 I 
ENDROOT
TORSDOF 0
ENDMDL
