MODEL 1
REMARK minimizedAffinity -4.59177113
REMARK minimizedRMSD -1
REMARK  0 active torsions:
REMARK  status: ('A' for Active; 'I' for Inactive)
ROOT
ATOM      1  C   UNL d   1      -1.447  -0.691   3.661  0.00  0.00     0.023 A 
ATOM      2  C1  UNL d   1      -0.084  -0.905   3.458  0.00  0.00     0.003 A 
ATOM      3  C2  UNL d   1       0.482  -0.670   2.203  0.00  0.00     0.048 A 
ATOM      4  C3  UNL d   1      -0.321  -0.220   1.156  0.00  0.00     0.023 A 
ATOM      5  C4  UNL d   1      -1.686  -0.005   1.354  0.00  0.00     0.048 A 
ATOM      6  C5  UNL d   1      -2.247  -0.242   2.610  0.00  0.00     0.003 A 
ATOM      7  I   UNL d   1       0.519   0.131  -0.713  0.00  0.00    -0.146 I 
ENDROOT
TORSDOF 0
ENDMDL
