MODEL 1
REMARK minimizedAffinity -5.21021509
REMARK minimizedRMSD -1
REMARK  0 active torsions:
REMARK  status: ('A' for Active; 'I' for Inactive)
ROOT
ATOM      1  C   UNL d   1      -0.322   0.003   3.268  0.00  0.00     0.023 A 
ATOM      2  C1  UNL d   1      -1.352  -0.319   2.385  0.00  0.00     0.003 A 
ATOM      3  C2  UNL d   1      -1.148  -0.224   1.007  0.00  0.00     0.048 A 
ATOM      4  C3  UNL d   1       0.090   0.193   0.519  0.00  0.00     0.023 A 
ATOM      5  C4  UNL d   1       1.125   0.516   1.399  0.00  0.00     0.048 A 
ATOM      6  C5  UNL d   1       0.915   0.420   2.776  0.00  0.00     0.003 A 
ATOM      7  I   UNL d   1       0.398   0.335  -1.532  0.00  0.00    -0.146 I 
ENDROOT
TORSDOF 0
ENDMDL
