MODEL 1
REMARK minimizedAffinity -2.23525953
REMARK minimizedRMSD -1
REMARK  0 active torsions:
REMARK  status: ('A' for Active; 'I' for Inactive)
ROOT
ATOM      1  C   UNL d   1       1.081  -1.210  -4.395  0.00  0.00     0.023 A 
ATOM      2  C1  UNL d   1       2.080  -0.553  -3.676  0.00  0.00     0.003 A 
ATOM      3  C2  UNL d   1       1.851  -0.165  -2.354  0.00  0.00     0.048 A 
ATOM      4  C3  UNL d   1       0.621  -0.439  -1.757  0.00  0.00     0.023 A 
ATOM      5  C4  UNL d   1      -0.381  -1.097  -2.471  0.00  0.00     0.048 A 
ATOM      6  C5  UNL d   1      -0.148  -1.482  -3.793  0.00  0.00     0.003 A 
ATOM      7  I   UNL d   1       0.278   0.137   0.211  0.00  0.00    -0.146 I 
ENDROOT
TORSDOF 0
ENDMDL
