MODEL 1
REMARK minimizedAffinity -3.45008254
REMARK minimizedRMSD -1
REMARK  0 active torsions:
REMARK  status: ('A' for Active; 'I' for Inactive)
ROOT
ATOM      1  C   UNL d   1       0.661   0.968   3.334  0.00  0.00     0.023 A 
ATOM      2  C1  UNL d   1       1.577   1.531   2.445  0.00  0.00     0.003 A 
ATOM      3  C2  UNL d   1       1.429   1.335   1.070  0.00  0.00     0.048 A 
ATOM      4  C3  UNL d   1       0.362   0.576   0.591  0.00  0.00     0.023 A 
ATOM      5  C4  UNL d   1      -0.557   0.011   1.477  0.00  0.00     0.048 A 
ATOM      6  C5  UNL d   1      -0.405   0.209   2.850  0.00  0.00     0.003 A 
ATOM      7  I   UNL d   1       0.139   0.283  -1.454  0.00  0.00    -0.146 I 
ENDROOT
TORSDOF 0
ENDMDL
