MODEL 1
REMARK minimizedAffinity -4.23773766
REMARK minimizedRMSD -1
REMARK  0 active torsions:
REMARK  status: ('A' for Active; 'I' for Inactive)
ROOT
ATOM      1  C   UNL d   1      -1.332  -0.001   3.024  0.00  0.00     0.023 A 
ATOM      2  C1  UNL d   1       0.011   0.306   2.806  0.00  0.00     0.003 A 
ATOM      3  C2  UNL d   1       0.513   0.360   1.504  0.00  0.00     0.048 A 
ATOM      4  C3  UNL d   1      -0.333   0.107   0.425  0.00  0.00     0.023 A 
ATOM      5  C4  UNL d   1      -1.678  -0.200   0.639  0.00  0.00     0.048 A 
ATOM      6  C5  UNL d   1      -2.176  -0.254   1.942  0.00  0.00     0.003 A 
ATOM      7  I   UNL d   1       0.412   0.188  -1.513  0.00  0.00    -0.146 I 
ENDROOT
TORSDOF 0
ENDMDL
