MODEL 1
REMARK minimizedAffinity -2.61660409
REMARK minimizedRMSD -1
REMARK  0 active torsions:
REMARK  status: ('A' for Active; 'I' for Inactive)
ROOT
ATOM      1  C   UNL d   1       1.431   0.505   1.783  0.00  0.00     0.023 A 
ATOM      2  C1  UNL d   1       0.852  -0.668   1.298  0.00  0.00     0.003 A 
ATOM      3  C2  UNL d   1       0.677  -0.846  -0.076  0.00  0.00     0.048 A 
ATOM      4  C3  UNL d   1       1.085   0.154  -0.959  0.00  0.00     0.023 A 
ATOM      5  C4  UNL d   1       1.665   1.328  -0.478  0.00  0.00     0.048 A 
ATOM      6  C5  UNL d   1       1.837   1.501   0.896  0.00  0.00     0.003 A 
ATOM      7  I   UNL d   1       0.826  -0.108  -3.005  0.00  0.00    -0.146 I 
ENDROOT
TORSDOF 0
ENDMDL
