MODEL 1
REMARK minimizedAffinity 0.908432245
REMARK minimizedRMSD -1
REMARK  0 active torsions:
REMARK  status: ('A' for Active; 'I' for Inactive)
ROOT
ATOM      1  C   UNL d   1       2.292   1.131   1.099  0.00  0.00     0.023 A 
ATOM      2  C1  UNL d   1       1.292   0.382   0.480  0.00  0.00     0.003 A 
ATOM      3  C2  UNL d   1       0.065   0.190   1.119  0.00  0.00     0.048 A 
ATOM      4  C3  UNL d   1      -0.155   0.751   2.376  0.00  0.00     0.023 A 
ATOM      5  C4  UNL d   1       0.843   1.502   2.999  0.00  0.00     0.048 A 
ATOM      6  C5  UNL d   1       2.068   1.690   2.357  0.00  0.00     0.003 A 
ATOM      7  I   UNL d   1      -1.981   0.467   3.329  0.00  0.00    -0.146 I 
ENDROOT
TORSDOF 0
ENDMDL
