MODEL 1
REMARK minimizedAffinity -3.799927
REMARK minimizedRMSD -1
REMARK  0 active torsions:
REMARK  status: ('A' for Active; 'I' for Inactive)
ROOT
ATOM      1  C   UNL d   1       0.368   0.136   3.082  0.00  0.00     0.023 A 
ATOM      2  C1  UNL d   1       1.403   0.801   2.425  0.00  0.00     0.003 A 
ATOM      3  C2  UNL d   1       1.417   0.869   1.030  0.00  0.00     0.048 A 
ATOM      4  C3  UNL d   1       0.392   0.269   0.299  0.00  0.00     0.023 A 
ATOM      5  C4  UNL d   1      -0.646  -0.397   0.952  0.00  0.00     0.048 A 
ATOM      6  C5  UNL d   1      -0.656  -0.463   2.346  0.00  0.00     0.003 A 
ATOM      7  I   UNL d   1       0.411   0.368  -1.777  0.00  0.00    -0.146 I 
ENDROOT
TORSDOF 0
ENDMDL
