MODEL 1
REMARK minimizedAffinity -4.18211555
REMARK minimizedRMSD -1
REMARK  0 active torsions:
REMARK  status: ('A' for Active; 'I' for Inactive)
ROOT
ATOM      1  C   UNL d   1      -0.110  -0.834   3.277  0.00  0.00     0.023 A 
ATOM      2  C1  UNL d   1      -1.135  -1.264   2.433  0.00  0.00     0.003 A 
ATOM      3  C2  UNL d   1      -1.082  -0.977   1.068  0.00  0.00     0.048 A 
ATOM      4  C3  UNL d   1      -0.002  -0.262   0.553  0.00  0.00     0.023 A 
ATOM      5  C4  UNL d   1       1.026   0.170   1.393  0.00  0.00     0.048 A 
ATOM      6  C5  UNL d   1       0.968  -0.119   2.758  0.00  0.00     0.003 A 
ATOM      7  I   UNL d   1       0.079   0.166  -1.480  0.00  0.00    -0.146 I 
ENDROOT
TORSDOF 0
ENDMDL
