MODEL 1
REMARK minimizedAffinity -6.12660074
REMARK minimizedRMSD -1
REMARK  1 active torsions:
REMARK  status: ('A' for Active; 'I' for Inactive)
REMARK    1  A    between atoms: C1_2  and  C2_3 
ROOT
ATOM      1  C2  UNL d   1      -0.004  -0.101   0.217  0.00  0.00    -0.076 A 
ATOM      2  C3  UNL d   1       1.083   0.278   1.024  0.00  0.00     0.004 A 
ATOM      3  C4  UNL d   1       0.882   0.941   2.233  0.00  0.00    -0.003 A 
ATOM      4  C5  UNL d   1      -0.409   1.236   2.656  0.00  0.00     0.000 A 
ATOM      5  C6  UNL d   1      -1.500   0.852   1.877  0.00  0.00     0.000 A 
ATOM      6  C7  UNL d   1      -1.316   0.168   0.663  0.00  0.00    -0.073 A 
ATOM      7  C8  UNL d   1      -2.528  -0.217  -0.140  0.00  0.00     0.078 C 
ENDROOT
BRANCH   1   8
ATOM      8  C1  UNL d   1       0.276  -0.795  -1.097  0.00  0.00     0.053 C 
ATOM      9  C   UNL d   1       0.886   0.140  -2.130  0.00  0.00     0.018 C 
ENDBRANCH   1   8
TORSDOF 1
ENDMDL
