MODEL 1
REMARK minimizedAffinity -3.17785954
REMARK minimizedRMSD -1
REMARK  1 active torsions:
REMARK  status: ('A' for Active; 'I' for Inactive)
REMARK    1  A    between atoms: C1_2  and  C2_3 
ROOT
ATOM      1  C2  UNL d   1      -0.975   0.421   0.730  0.00  0.00    -0.076 A 
ATOM      2  C3  UNL d   1      -0.272   1.250   1.621  0.00  0.00     0.004 A 
ATOM      3  C4  UNL d   1      -0.737   1.467   2.917  0.00  0.00    -0.003 A 
ATOM      4  C5  UNL d   1      -1.913   0.858   3.343  0.00  0.00     0.000 A 
ATOM      5  C6  UNL d   1      -2.614   0.019   2.478  0.00  0.00     0.000 A 
ATOM      6  C7  UNL d   1      -2.150  -0.223   1.173  0.00  0.00    -0.073 A 
ATOM      7  C8  UNL d   1      -2.949  -1.133   0.280  0.00  0.00     0.078 C 
ENDROOT
BRANCH   1   8
ATOM      8  C1  UNL d   1      -0.437   0.245  -0.672  0.00  0.00     0.053 C 
ATOM      9  C   UNL d   1       0.855  -0.557  -0.704  0.00  0.00     0.018 C 
ENDBRANCH   1   8
TORSDOF 1
ENDMDL
