MODEL 1
REMARK minimizedAffinity -3.47778702
REMARK minimizedRMSD -1
REMARK  1 active torsions:
REMARK  status: ('A' for Active; 'I' for Inactive)
REMARK    1  A    between atoms: C1_2  and  C2_3 
ROOT
ATOM      1  C2  UNL d   1      -0.465   0.540   0.882  0.00  0.00    -0.076 A 
ATOM      2  C3  UNL d   1      -1.299   0.318  -0.228  0.00  0.00     0.004 A 
ATOM      3  C4  UNL d   1      -0.797  -0.244  -1.401  0.00  0.00    -0.003 A 
ATOM      4  C5  UNL d   1       0.546  -0.594  -1.483  0.00  0.00     0.000 A 
ATOM      5  C6  UNL d   1       1.384  -0.396  -0.386  0.00  0.00     0.000 A 
ATOM      6  C7  UNL d   1       0.891   0.155   0.810  0.00  0.00    -0.073 A 
ATOM      7  C8  UNL d   1       1.840   0.351   1.960  0.00  0.00     0.078 C 
ENDROOT
BRANCH   1   8
ATOM      8  C1  UNL d   1      -1.059   1.178   2.117  0.00  0.00     0.053 C 
ATOM      9  C   UNL d   1      -2.219   0.376   2.687  0.00  0.00     0.018 C 
ENDBRANCH   1   8
TORSDOF 1
ENDMDL
