MODEL 1
REMARK minimizedAffinity -4.85208607
REMARK minimizedRMSD -1
REMARK  1 active torsions:
REMARK  status: ('A' for Active; 'I' for Inactive)
REMARK    1  A    between atoms: C1_2  and  C2_3 
ROOT
ATOM      1  C2  UNL d   1      -0.504   0.513   0.195  0.00  0.00    -0.076 A 
ATOM      2  C3  UNL d   1       0.481   1.263   0.862  0.00  0.00     0.004 A 
ATOM      3  C4  UNL d   1       0.288   1.696   2.172  0.00  0.00    -0.003 A 
ATOM      4  C5  UNL d   1      -0.893   1.386   2.838  0.00  0.00     0.000 A 
ATOM      5  C6  UNL d   1      -1.873   0.628   2.197  0.00  0.00     0.000 A 
ATOM      6  C7  UNL d   1      -1.688   0.170   0.882  0.00  0.00    -0.073 A 
ATOM      7  C8  UNL d   1      -2.780  -0.639   0.238  0.00  0.00     0.078 C 
ENDROOT
BRANCH   1   8
ATOM      8  C1  UNL d   1      -0.250   0.094  -1.236  0.00  0.00     0.053 C 
ATOM      9  C   UNL d   1       1.054  -0.673  -1.396  0.00  0.00     0.018 C 
ENDBRANCH   1   8
TORSDOF 1
ENDMDL
