MODEL 1
REMARK minimizedAffinity -4.11838531
REMARK minimizedRMSD -1
REMARK  1 active torsions:
REMARK  status: ('A' for Active; 'I' for Inactive)
REMARK    1  A    between atoms: C1_2  and  C2_3 
ROOT
ATOM      1  C2  UNL d   1      -0.481   0.487   0.470  0.00  0.00    -0.076 A 
ATOM      2  C3  UNL d   1       0.334   1.253   1.321  0.00  0.00     0.004 A 
ATOM      3  C4  UNL d   1      -0.127   1.677   2.566  0.00  0.00    -0.003 A 
ATOM      4  C5  UNL d   1      -1.412   1.342   2.980  0.00  0.00     0.000 A 
ATOM      5  C6  UNL d   1      -2.228   0.567   2.156  0.00  0.00     0.000 A 
ATOM      6  C7  UNL d   1      -1.772   0.118   0.905  0.00  0.00    -0.073 A 
ATOM      7  C8  UNL d   1      -2.696  -0.709   0.054  0.00  0.00     0.078 C 
ENDROOT
BRANCH   1   8
ATOM      8  C1  UNL d   1       0.064   0.079  -0.880  0.00  0.00     0.053 C 
ATOM      9  C   UNL d   1       1.135  -0.996  -0.776  0.00  0.00     0.018 C 
ENDBRANCH   1   8
TORSDOF 1
ENDMDL
