MODEL 1
REMARK minimizedAffinity -5.56895971
REMARK minimizedRMSD -1
REMARK  1 active torsions:
REMARK  status: ('A' for Active; 'I' for Inactive)
REMARK    1  A    between atoms: C1_2  and  C2_3 
ROOT
ATOM      1  C2  UNL d   1      -0.889   0.354   1.211  0.00  0.00    -0.076 A 
ATOM      2  C3  UNL d   1       0.511   0.435   1.307  0.00  0.00     0.004 A 
ATOM      3  C4  UNL d   1       1.329  -0.025   0.276  0.00  0.00    -0.003 A 
ATOM      4  C5  UNL d   1       0.759  -0.572  -0.869  0.00  0.00     0.000 A 
ATOM      5  C6  UNL d   1      -0.628  -0.644  -0.988  0.00  0.00     0.000 A 
ATOM      6  C7  UNL d   1      -1.467  -0.170   0.035  0.00  0.00    -0.073 A 
ATOM      7  C8  UNL d   1      -2.956  -0.277  -0.145  0.00  0.00     0.078 C 
ENDROOT
BRANCH   1   8
ATOM      8  C1  UNL d   1      -1.724   0.844   2.372  0.00  0.00     0.053 C 
ATOM      9  C   UNL d   1      -1.028   1.934   3.172  0.00  0.00     0.018 C 
ENDBRANCH   1   8
TORSDOF 1
ENDMDL
