MODEL 1
REMARK minimizedAffinity -4.36657524
REMARK minimizedRMSD -1
REMARK  1 active torsions:
REMARK  status: ('A' for Active; 'I' for Inactive)
REMARK    1  A    between atoms: C1_2  and  C2_3 
ROOT
ATOM      1  C2  UNL d   1      -0.626   0.132  -0.251  0.00  0.00    -0.076 A 
ATOM      2  C3  UNL d   1       0.528   0.314   0.531  0.00  0.00     0.004 A 
ATOM      3  C4  UNL d   1       0.437   0.536   1.904  0.00  0.00    -0.003 A 
ATOM      4  C5  UNL d   1      -0.810   0.579   2.518  0.00  0.00     0.000 A 
ATOM      5  C6  UNL d   1      -1.965   0.384   1.761  0.00  0.00     0.000 A 
ATOM      6  C7  UNL d   1      -1.889   0.142   0.378  0.00  0.00    -0.073 A 
ATOM      7  C8  UNL d   1      -3.167  -0.056  -0.391  0.00  0.00     0.078 C 
ENDROOT
BRANCH   1   8
ATOM      8  C1  UNL d   1      -0.466  -0.078  -1.739  0.00  0.00     0.053 C 
ATOM      9  C   UNL d   1       0.931   0.269  -2.230  0.00  0.00     0.018 C 
ENDBRANCH   1   8
TORSDOF 1
ENDMDL
