MODEL 1
REMARK minimizedAffinity -3.19852662
REMARK minimizedRMSD -1
REMARK  1 active torsions:
REMARK  status: ('A' for Active; 'I' for Inactive)
REMARK    1  A    between atoms: C1_2  and  C2_3 
ROOT
ATOM      1  C2  UNL d   1      -0.187   0.493   0.203  0.00  0.00    -0.076 A 
ATOM      2  C3  UNL d   1       0.810   0.913   1.101  0.00  0.00     0.004 A 
ATOM      3  C4  UNL d   1       0.534   1.063   2.460  0.00  0.00    -0.003 A 
ATOM      4  C5  UNL d   1      -0.742   0.794   2.942  0.00  0.00     0.000 A 
ATOM      5  C6  UNL d   1      -1.738   0.359   2.068  0.00  0.00     0.000 A 
ATOM      6  C7  UNL d   1      -1.473   0.188   0.698  0.00  0.00    -0.073 A 
ATOM      7  C8  UNL d   1      -2.586  -0.278  -0.200  0.00  0.00     0.078 C 
ENDROOT
BRANCH   1   8
ATOM      8  C1  UNL d   1       0.163   0.375  -1.263  0.00  0.00     0.053 C 
ATOM      9  C   UNL d   1       1.240   1.361  -1.686  0.00  0.00     0.018 C 
ENDBRANCH   1   8
TORSDOF 1
ENDMDL
