MODEL 1
REMARK minimizedAffinity -3.43972969
REMARK minimizedRMSD -1
REMARK  1 active torsions:
REMARK  status: ('A' for Active; 'I' for Inactive)
REMARK    1  A    between atoms: C1_2  and  C2_3 
ROOT
ATOM      1  C2  UNL d   1      -0.560   0.133   0.367  0.00  0.00    -0.076 A 
ATOM      2  C3  UNL d   1       0.496   0.206   1.292  0.00  0.00     0.004 A 
ATOM      3  C4  UNL d   1       0.258   0.519   2.629  0.00  0.00    -0.003 A 
ATOM      4  C5  UNL d   1      -1.040   0.764   3.064  0.00  0.00     0.000 A 
ATOM      5  C6  UNL d   1      -2.101   0.678   2.164  0.00  0.00     0.000 A 
ATOM      6  C7  UNL d   1      -1.881   0.348   0.815  0.00  0.00    -0.073 A 
ATOM      7  C8  UNL d   1      -3.062   0.276  -0.113  0.00  0.00     0.078 C 
ENDROOT
BRANCH   1   8
ATOM      8  C1  UNL d   1      -0.238  -0.184  -1.076  0.00  0.00     0.053 C 
ATOM      9  C   UNL d   1       0.989  -1.072  -1.218  0.00  0.00     0.018 C 
ENDBRANCH   1   8
TORSDOF 1
ENDMDL
