MODEL 1
REMARK minimizedAffinity -3.69233155
REMARK minimizedRMSD -1
REMARK  1 active torsions:
REMARK  status: ('A' for Active; 'I' for Inactive)
REMARK    1  A    between atoms: C1_2  and  C2_3 
ROOT
ATOM      1  C2  UNL d   1      -0.560   0.064  -0.146  0.00  0.00    -0.076 A 
ATOM      2  C3  UNL d   1      -1.889   0.055   0.310  0.00  0.00     0.004 A 
ATOM      3  C4  UNL d   1      -2.250   0.718   1.482  0.00  0.00    -0.003 A 
ATOM      4  C5  UNL d   1      -1.287   1.401   2.216  0.00  0.00     0.000 A 
ATOM      5  C6  UNL d   1       0.033   1.436   1.769  0.00  0.00     0.000 A 
ATOM      6  C7  UNL d   1       0.411   0.787   0.581  0.00  0.00    -0.073 A 
ATOM      7  C8  UNL d   1       1.850   0.852   0.148  0.00  0.00     0.078 C 
ENDROOT
BRANCH   1   8
ATOM      8  C1  UNL d   1      -0.222  -0.695  -1.409  0.00  0.00     0.053 C 
ATOM      9  C   UNL d   1       0.045   0.226  -2.590  0.00  0.00     0.018 C 
ENDBRANCH   1   8
TORSDOF 1
ENDMDL
