MODEL 1
REMARK minimizedAffinity -4.5473485
REMARK minimizedRMSD -1
REMARK  0 active torsions:
REMARK  status: ('A' for Active; 'I' for Inactive)
ROOT
ATOM      1  C4' PXY d   1       1.290  -1.500  -1.353  0.00  0.00     0.077 C 
ATOM      2  C1' PXY d   1      -1.952   2.030   1.878  0.00  0.00     0.077 C 
ATOM      3  C1  PXY d   1      -1.097   1.099   1.042  0.00  0.00    -0.082 A 
ATOM      4  C2  PXY d   1      -0.813   1.420  -0.210  0.00  0.00     0.003 A 
ATOM      5  C3  PXY d   1      -0.067   0.575  -0.991  0.00  0.00     0.003 A 
ATOM      6  C4  PXY d   1       0.438  -0.586  -0.469  0.00  0.00    -0.082 A 
ATOM      7  C5  PXY d   1       0.162  -0.915   0.811  0.00  0.00     0.003 A 
ATOM      8  C6  PXY d   1      -0.631  -0.063   1.574  0.00  0.00     0.003 A 
ENDROOT
TORSDOF 0
ENDMDL
