MODEL 1
REMARK minimizedAffinity -4.65970087
REMARK minimizedRMSD -1
REMARK  0 active torsions:
REMARK  status: ('A' for Active; 'I' for Inactive)
ROOT
ATOM      1  C4' PXY d   1      -2.079   2.209   1.490  0.00  0.00     0.077 C 
ATOM      2  C1' PXY d   1       1.393  -1.645  -1.062  0.00  0.00     0.077 C 
ATOM      3  C1  PXY d   1       0.477  -0.644  -0.385  0.00  0.00    -0.082 A 
ATOM      4  C2  PXY d   1       0.166   0.481  -1.007  0.00  0.00     0.003 A 
ATOM      5  C3  PXY d   1      -0.635   1.412  -0.397  0.00  0.00     0.003 A 
ATOM      6  C4  PXY d   1      -1.165   1.165   0.841  0.00  0.00    -0.082 A 
ATOM      7  C5  PXY d   1      -0.861   0.014   1.477  0.00  0.00     0.003 A 
ATOM      8  C6  PXY d   1      -0.013  -0.900   0.858  0.00  0.00     0.003 A 
ENDROOT
TORSDOF 0
ENDMDL
