MODEL 1
REMARK minimizedAffinity -3.49338722
REMARK minimizedRMSD -1
REMARK  0 active torsions:
REMARK  status: ('A' for Active; 'I' for Inactive)
ROOT
ATOM      1  C4' PXY d   1       1.684  -1.679  -1.513  0.00  0.00     0.077 C 
ATOM      2  C1' PXY d   1      -1.712   1.608   1.816  0.00  0.00     0.077 C 
ATOM      3  C1  PXY d   1      -0.827   0.751   0.932  0.00  0.00    -0.082 A 
ATOM      4  C2  PXY d   1      -0.292  -0.357   1.420  0.00  0.00     0.003 A 
ATOM      5  C3  PXY d   1       0.536  -1.127   0.644  0.00  0.00     0.003 A 
ATOM      6  C4  PXY d   1       0.777  -0.788  -0.660  0.00  0.00    -0.082 A 
ATOM      7  C5  PXY d   1       0.226   0.334  -1.169  0.00  0.00     0.003 A 
ATOM      8  C6  PXY d   1      -0.579   1.124  -0.353  0.00  0.00     0.003 A 
ENDROOT
TORSDOF 0
ENDMDL
