MODEL 1
REMARK minimizedAffinity -5.73530436
REMARK minimizedRMSD -1
REMARK  0 active torsions:
REMARK  status: ('A' for Active; 'I' for Inactive)
ROOT
ATOM      1  C4' PXY d   1       1.644  -1.439  -0.869  0.00  0.00     0.077 C 
ATOM      2  C1' PXY d   1      -2.407   2.097   1.253  0.00  0.00     0.077 C 
ATOM      3  C1  PXY d   1      -1.341   1.167   0.709  0.00  0.00    -0.082 A 
ATOM      4  C2  PXY d   1      -0.871   1.354  -0.514  0.00  0.00     0.003 A 
ATOM      5  C3  PXY d   1       0.070   0.503  -1.034  0.00  0.00     0.003 A 
ATOM      6  C4  PXY d   1       0.574  -0.519  -0.275  0.00  0.00    -0.082 A 
ATOM      7  C5  PXY d   1       0.108  -0.710   0.978  0.00  0.00     0.003 A 
ATOM      8  C6  PXY d   1      -0.877   0.140   1.472  0.00  0.00     0.003 A 
ENDROOT
TORSDOF 0
ENDMDL
