MODEL 1
REMARK minimizedAffinity -4.62564802
REMARK minimizedRMSD -1
REMARK  0 active torsions:
REMARK  status: ('A' for Active; 'I' for Inactive)
ROOT
ATOM      1  C4' PXY d   1       0.813  -1.429  -1.234  0.00  0.00     0.077 C 
ATOM      2  C1' PXY d   1      -2.101   2.476   1.878  0.00  0.00     0.077 C 
ATOM      3  C1  PXY d   1      -1.340   1.458   1.051  0.00  0.00    -0.082 A 
ATOM      4  C2  PXY d   1      -1.089   0.261   1.556  0.00  0.00     0.003 A 
ATOM      5  C3  PXY d   1      -0.375  -0.661   0.834  0.00  0.00     0.003 A 
ATOM      6  C4  PXY d   1       0.040  -0.373  -0.439  0.00  0.00    -0.082 A 
ATOM      7  C5  PXY d   1      -0.222   0.842  -0.965  0.00  0.00     0.003 A 
ATOM      8  C6  PXY d   1      -0.912   1.778  -0.200  0.00  0.00     0.003 A 
ENDROOT
TORSDOF 0
ENDMDL
