MODEL 1
REMARK minimizedAffinity -5.38859129
REMARK minimizedRMSD -1
REMARK  0 active torsions:
REMARK  status: ('A' for Active; 'I' for Inactive)
ROOT
ATOM      1  C4' PXY d   1       0.637  -1.666  -1.460  0.00  0.00     0.077 C 
ATOM      2  C1' PXY d   1      -2.400   2.195   1.587  0.00  0.00     0.077 C 
ATOM      3  C1  PXY d   1      -1.598   1.178   0.799  0.00  0.00    -0.082 A 
ATOM      4  C2  PXY d   1      -1.348   1.393  -0.482  0.00  0.00     0.003 A 
ATOM      5  C3  PXY d   1      -0.652   0.469  -1.218  0.00  0.00     0.003 A 
ATOM      6  C4  PXY d   1      -0.161  -0.662  -0.623  0.00  0.00    -0.082 A 
ATOM      7  C5  PXY d   1      -0.402  -0.884   0.687  0.00  0.00     0.003 A 
ATOM      8  C6  PXY d   1      -1.147   0.047   1.406  0.00  0.00     0.003 A 
ENDROOT
TORSDOF 0
ENDMDL
