MODEL 1
REMARK minimizedAffinity -3.6502142
REMARK minimizedRMSD -1
REMARK  0 active torsions:
REMARK  status: ('A' for Active; 'I' for Inactive)
ROOT
ATOM      1  C4' PXY d   1       1.261  -2.446  -1.418  0.00  0.00     0.077 C 
ATOM      2  C1' PXY d   1      -1.144   1.739   1.762  0.00  0.00     0.077 C 
ATOM      3  C1  PXY d   1      -0.517   0.648   0.918  0.00  0.00    -0.082 A 
ATOM      4  C2  PXY d   1      -0.312  -0.550   1.443  0.00  0.00     0.003 A 
ATOM      5  C3  PXY d   1       0.283  -1.539   0.703  0.00  0.00     0.003 A 
ATOM      6  C4  PXY d   1       0.623  -1.317  -0.605  0.00  0.00    -0.082 A 
ATOM      7  C5  PXY d   1       0.407  -0.101  -1.151  0.00  0.00     0.003 A 
ATOM      8  C6  PXY d   1      -0.160   0.902  -0.371  0.00  0.00     0.003 A 
ENDROOT
TORSDOF 0
ENDMDL
