MODEL 1
REMARK minimizedAffinity -4.56603622
REMARK minimizedRMSD -1
REMARK  0 active torsions:
REMARK  status: ('A' for Active; 'I' for Inactive)
ROOT
ATOM      1  C4' PXY d   1       1.431  -0.734  -0.500  0.00  0.00     0.077 C 
ATOM      2  C1' PXY d   1      -2.960   2.646   1.146  0.00  0.00     0.077 C 
ATOM      3  C1  PXY d   1      -1.808   1.754   0.726  0.00  0.00    -0.082 A 
ATOM      4  C2  PXY d   1      -1.022   2.126  -0.272  0.00  0.00     0.003 A 
ATOM      5  C3  PXY d   1       0.004   1.317  -0.685  0.00  0.00     0.003 A 
ATOM      6  C4  PXY d   1       0.262   0.139  -0.036  0.00  0.00    -0.082 A 
ATOM      7  C5  PXY d   1      -0.529  -0.242   0.989  0.00  0.00     0.003 A 
ATOM      8  C6  PXY d   1      -1.591   0.574   1.367  0.00  0.00     0.003 A 
ENDROOT
TORSDOF 0
ENDMDL
