MODEL 1
REMARK minimizedAffinity -2.60945797
REMARK minimizedRMSD -1
REMARK  0 active torsions:
REMARK  status: ('A' for Active; 'I' for Inactive)
ROOT
ATOM      1  C4' PXY d   1       1.199  -1.024  -0.673  0.00  0.00     0.077 C 
ATOM      2  C1' PXY d   1      -3.033   2.220   1.558  0.00  0.00     0.077 C 
ATOM      3  C1  PXY d   1      -1.917   1.371   0.984  0.00  0.00    -0.082 A 
ATOM      4  C2  PXY d   1      -1.785   1.263  -0.328  0.00  0.00     0.003 A 
ATOM      5  C3  PXY d   1      -0.801   0.473  -0.864  0.00  0.00     0.003 A 
ATOM      6  C4  PXY d   1       0.092  -0.170  -0.049  0.00  0.00    -0.082 A 
ATOM      7  C5  PXY d   1      -0.029  -0.056   1.290  0.00  0.00     0.003 A 
ATOM      8  C6  PXY d   1      -1.060   0.717   1.815  0.00  0.00     0.003 A 
ENDROOT
TORSDOF 0
ENDMDL
