MODEL 1
REMARK minimizedAffinity 0.0509274416
REMARK minimizedRMSD -1
REMARK  0 active torsions:
REMARK  status: ('A' for Active; 'I' for Inactive)
ROOT
ATOM      1  C4' PXY d   1       1.653  -2.250  -1.016  0.00  0.00     0.077 C 
ATOM      2  C1' PXY d   1      -1.331   2.023   1.484  0.00  0.00     0.077 C 
ATOM      3  C1  PXY d   1      -0.551   0.907   0.817  0.00  0.00    -0.082 A 
ATOM      4  C2  PXY d   1      -0.366  -0.235   1.458  0.00  0.00     0.003 A 
ATOM      5  C3  PXY d   1       0.364  -1.243   0.882  0.00  0.00     0.003 A 
ATOM      6  C4  PXY d   1       0.864  -1.100  -0.385  0.00  0.00    -0.082 A 
ATOM      7  C5  PXY d   1       0.670   0.059  -1.050  0.00  0.00     0.003 A 
ATOM      8  C6  PXY d   1      -0.039   1.085  -0.431  0.00  0.00     0.003 A 
ENDROOT
TORSDOF 0
ENDMDL
