MODEL 1
REMARK minimizedAffinity -2.40501952
REMARK minimizedRMSD -1
REMARK  0 active torsions:
REMARK  status: ('A' for Active; 'I' for Inactive)
ROOT
ATOM      1  C4' PXY d   1       2.270  -0.186   0.320  0.00  0.00     0.077 C 
ATOM      2  C1' PXY d   1      -3.165   1.705   0.865  0.00  0.00     0.077 C 
ATOM      3  C1  PXY d   1      -1.742   1.206   0.710  0.00  0.00    -0.082 A 
ATOM      4  C2  PXY d   1      -1.063   0.823   1.779  0.00  0.00     0.003 A 
ATOM      5  C3  PXY d   1       0.236   0.399   1.660  0.00  0.00     0.003 A 
ATOM      6  C4  PXY d   1       0.828   0.316   0.428  0.00  0.00    -0.082 A 
ATOM      7  C5  PXY d   1       0.138   0.695  -0.668  0.00  0.00     0.003 A 
ATOM      8  C6  PXY d   1      -1.165   1.161  -0.522  0.00  0.00     0.003 A 
ENDROOT
TORSDOF 0
ENDMDL
