MODEL 1
REMARK minimizedAffinity -5.20154524
REMARK minimizedRMSD -1
REMARK  0 active torsions:
REMARK  status: ('A' for Active; 'I' for Inactive)
ROOT
ATOM      1  C4' PXY d   1       1.514  -1.073  -1.150  0.00  0.00     0.077 C 
ATOM      2  C1' PXY d   1      -2.159   2.397   1.658  0.00  0.00     0.077 C 
ATOM      3  C1  PXY d   1      -1.192   1.482   0.933  0.00  0.00    -0.082 A 
ATOM      4  C2  PXY d   1      -0.750   1.817  -0.269  0.00  0.00     0.003 A 
ATOM      5  C3  PXY d   1       0.100   0.986  -0.952  0.00  0.00     0.003 A 
ATOM      6  C4  PXY d   1       0.544  -0.175  -0.377  0.00  0.00    -0.082 A 
ATOM      7  C5  PXY d   1       0.106  -0.519   0.853  0.00  0.00     0.003 A 
ATOM      8  C6  PXY d   1      -0.789   0.319   1.512  0.00  0.00     0.003 A 
ENDROOT
TORSDOF 0
ENDMDL
