MODEL 1
REMARK minimizedAffinity -3.56547928
REMARK minimizedRMSD -1
REMARK  0 active torsions:
REMARK  status: ('A' for Active; 'I' for Inactive)
ROOT
ATOM      1  C4' PXY d   1       1.476  -1.079  -1.137  0.00  0.00     0.077 C 
ATOM      2  C1' PXY d   1      -2.230   2.178   1.876  0.00  0.00     0.077 C 
ATOM      3  C1  PXY d   1      -1.260   1.331   1.075  0.00  0.00    -0.082 A 
ATOM      4  C2  PXY d   1      -0.996   0.094   1.465  0.00  0.00     0.003 A 
ATOM      5  C3  PXY d   1      -0.098  -0.675   0.770  0.00  0.00     0.003 A 
ATOM      6  C4  PXY d   1       0.497  -0.191  -0.364  0.00  0.00    -0.082 A 
ATOM      7  C5  PXY d   1       0.224   1.066  -0.774  0.00  0.00     0.003 A 
ATOM      8  C6  PXY d   1      -0.659   1.844  -0.032  0.00  0.00     0.003 A 
ENDROOT
TORSDOF 0
ENDMDL
