MODEL 1
REMARK minimizedAffinity -5.24227381
REMARK minimizedRMSD -1
REMARK  0 active torsions:
REMARK  status: ('A' for Active; 'I' for Inactive)
ROOT
ATOM      1  C4' PXY d   1      -1.920   1.748   1.905  0.00  0.00     0.077 C 
ATOM      2  C1' PXY d   1       1.088  -2.054  -1.242  0.00  0.00     0.077 C 
ATOM      3  C1  PXY d   1       0.296  -1.066  -0.409  0.00  0.00    -0.082 A 
ATOM      4  C2  PXY d   1      -0.153   0.047  -0.965  0.00  0.00     0.003 A 
ATOM      5  C3  PXY d   1      -0.844   0.966  -0.218  0.00  0.00     0.003 A 
ATOM      6  C4  PXY d   1      -1.124   0.718   1.100  0.00  0.00    -0.082 A 
ATOM      7  C5  PXY d   1      -0.678  -0.420   1.672  0.00  0.00     0.003 A 
ATOM      8  C6  PXY d   1       0.057  -1.321   0.906  0.00  0.00     0.003 A 
ENDROOT
TORSDOF 0
ENDMDL
