MODEL 1
REMARK minimizedAffinity -4.14454317
REMARK minimizedRMSD -1
REMARK  0 active torsions:
REMARK  status: ('A' for Active; 'I' for Inactive)
ROOT
ATOM      1  C4' PXY d   1       1.072  -2.202  -1.137  0.00  0.00     0.077 C 
ATOM      2  C1' PXY d   1      -1.908   2.185   1.162  0.00  0.00     0.077 C 
ATOM      3  C1  PXY d   1      -1.128   1.040   0.547  0.00  0.00    -0.082 A 
ATOM      4  C2  PXY d   1      -1.075  -0.125   1.172  0.00  0.00     0.003 A 
ATOM      5  C3  PXY d   1      -0.348  -1.162   0.646  0.00  0.00     0.003 A 
ATOM      6  C4  PXY d   1       0.288  -1.021  -0.558  0.00  0.00    -0.082 A 
ATOM      7  C5  PXY d   1       0.230   0.161  -1.207  0.00  0.00     0.003 A 
ATOM      8  C6  PXY d   1      -0.479   1.214  -0.636  0.00  0.00     0.003 A 
ENDROOT
TORSDOF 0
ENDMDL
