MODEL 1
REMARK minimizedAffinity -4.78542137
REMARK minimizedRMSD -1
REMARK  0 active torsions:
REMARK  status: ('A' for Active; 'I' for Inactive)
ROOT
ATOM      1  C4' PXY d   1       1.246  -1.246  -0.442  0.00  0.00     0.077 C 
ATOM      2  C1' PXY d   1      -2.480   2.737   1.475  0.00  0.00     0.077 C 
ATOM      3  C1  PXY d   1      -1.498   1.692   0.984  0.00  0.00    -0.082 A 
ATOM      4  C2  PXY d   1      -1.167   1.655  -0.297  0.00  0.00     0.003 A 
ATOM      5  C3  PXY d   1      -0.305   0.696  -0.763  0.00  0.00     0.003 A 
ATOM      6  C4  PXY d   1       0.266  -0.202   0.099  0.00  0.00    -0.082 A 
ATOM      7  C5  PXY d   1      -0.058  -0.164   1.409  0.00  0.00     0.003 A 
ATOM      8  C6  PXY d   1      -0.967   0.791   1.856  0.00  0.00     0.003 A 
ENDROOT
TORSDOF 0
ENDMDL
