MODEL 1
REMARK minimizedAffinity -3.60731554
REMARK minimizedRMSD -1
REMARK  0 active torsions:
REMARK  status: ('A' for Active; 'I' for Inactive)
ROOT
ATOM      1  C4' PXY d   1       1.064  -1.780  -1.539  0.00  0.00     0.077 C 
ATOM      2  C1' PXY d   1      -1.603   2.023   1.902  0.00  0.00     0.077 C 
ATOM      3  C1  PXY d   1      -0.894   1.024   1.009  0.00  0.00    -0.082 A 
ATOM      4  C2  PXY d   1      -1.102   1.053  -0.298  0.00  0.00     0.003 A 
ATOM      5  C3  PXY d   1      -0.494   0.137  -1.117  0.00  0.00     0.003 A 
ATOM      6  C4  PXY d   1       0.377  -0.785  -0.600  0.00  0.00    -0.082 A 
ATOM      7  C5  PXY d   1       0.602  -0.814   0.731  0.00  0.00     0.003 A 
ATOM      8  C6  PXY d   1      -0.057   0.098   1.550  0.00  0.00     0.003 A 
ENDROOT
TORSDOF 0
ENDMDL
