MODEL 1
REMARK minimizedAffinity -3.72183442
REMARK minimizedRMSD -1
REMARK  0 active torsions:
REMARK  status: ('A' for Active; 'I' for Inactive)
ROOT
ATOM      1  C4' PXY d   1       1.140  -1.328  -1.067  0.00  0.00     0.077 C 
ATOM      2  C1' PXY d   1      -2.323   2.274   1.839  0.00  0.00     0.077 C 
ATOM      3  C1  PXY d   1      -1.419   1.334   1.066  0.00  0.00    -0.082 A 
ATOM      4  C2  PXY d   1      -1.002   0.214   1.633  0.00  0.00     0.003 A 
ATOM      5  C3  PXY d   1      -0.158  -0.632   0.959  0.00  0.00     0.003 A 
ATOM      6  C4  PXY d   1       0.219  -0.354  -0.327  0.00  0.00    -0.082 A 
ATOM      7  C5  PXY d   1      -0.211   0.782  -0.917  0.00  0.00     0.003 A 
ATOM      8  C6  PXY d   1      -1.034   1.647  -0.201  0.00  0.00     0.003 A 
ENDROOT
TORSDOF 0
ENDMDL
