MODEL 1
REMARK minimizedAffinity -4.75809336
REMARK minimizedRMSD -1
REMARK  0 active torsions:
REMARK  status: ('A' for Active; 'I' for Inactive)
ROOT
ATOM      1  C4' PXY d   1      -2.147   1.964   1.880  0.00  0.00     0.077 C 
ATOM      2  C1' PXY d   1       1.326  -1.848  -0.731  0.00  0.00     0.077 C 
ATOM      3  C1  PXY d   1       0.419  -0.840  -0.055  0.00  0.00    -0.082 A 
ATOM      4  C2  PXY d   1       0.076  -1.014   1.212  0.00  0.00     0.003 A 
ATOM      5  C3  PXY d   1      -0.769  -0.128   1.829  0.00  0.00     0.003 A 
ATOM      6  C4  PXY d   1      -1.226   0.976   1.160  0.00  0.00    -0.082 A 
ATOM      7  C5  PXY d   1      -0.872   1.166  -0.129  0.00  0.00     0.003 A 
ATOM      8  C6  PXY d   1      -0.046   0.233  -0.750  0.00  0.00     0.003 A 
ENDROOT
TORSDOF 0
ENDMDL
