MODEL 1
REMARK minimizedAffinity -4.64983749
REMARK minimizedRMSD -1
REMARK  0 active torsions:
REMARK  status: ('A' for Active; 'I' for Inactive)
ROOT
ATOM      1  C4' PXY d   1       1.435  -1.810  -0.997  0.00  0.00     0.077 C 
ATOM      2  C1' PXY d   1      -2.111   2.079   1.393  0.00  0.00     0.077 C 
ATOM      3  C1  PXY d   1      -1.185   1.062   0.755  0.00  0.00    -0.082 A 
ATOM      4  C2  PXY d   1      -0.768   0.023   1.460  0.00  0.00     0.003 A 
ATOM      5  C3  PXY d   1       0.095  -0.888   0.908  0.00  0.00     0.003 A 
ATOM      6  C4  PXY d   1       0.493  -0.764  -0.396  0.00  0.00    -0.082 A 
ATOM      7  C5  PXY d   1       0.063   0.287  -1.126  0.00  0.00     0.003 A 
ATOM      8  C6  PXY d   1      -0.779   1.224  -0.534  0.00  0.00     0.003 A 
ENDROOT
TORSDOF 0
ENDMDL
