MODEL 1
REMARK minimizedAffinity 13.1314173
REMARK minimizedRMSD -1
REMARK  1 active torsions:
REMARK  status: ('A' for Active; 'I' for Inactive)
REMARK    1  A    between atoms: C3_4  and  O_7 
ROOT
ATOM      1  C   UNL d   1      -2.912   1.320  -3.609  0.00  0.00    -0.033 A 
ATOM      2  C1  UNL d   1      -1.641   0.740  -3.630  0.00  0.00     0.039 A 
ATOM      3  C2  UNL d   1      -0.536   1.491  -4.036  0.00  0.00    -0.080 A 
ATOM      4  C3  UNL d   1      -0.715   2.819  -4.415  0.00  0.00     0.150 A 
ATOM      5  C4  UNL d   1      -1.976   3.404  -4.392  0.00  0.00    -0.007 A 
ATOM      6  C5  UNL d   1      -3.079   2.652  -3.988  0.00  0.00     0.039 A 
ENDROOT
BRANCH   4   7
ATOM      7  O   UNL d   1       0.333   3.590  -4.823  0.00  0.00    -0.526 OA
ATOM      8  H5  UNL d   1       1.138   3.045  -4.815  0.00  0.00     0.418 HD
ENDBRANCH   4   7
TORSDOF 1
ENDMDL
