MODEL 1
REMARK minimizedAffinity 9.46930218
REMARK minimizedRMSD -1
REMARK  1 active torsions:
REMARK  status: ('A' for Active; 'I' for Inactive)
REMARK    1  A    between atoms: C3_4  and  O_7 
ROOT
ATOM      1  C   UNL d   1       4.937   2.098  -2.227  0.00  0.00    -0.033 A 
ATOM      2  C1  UNL d   1       3.878   2.274  -1.334  0.00  0.00     0.039 A 
ATOM      3  C2  UNL d   1       3.880   3.356  -0.451  0.00  0.00    -0.080 A 
ATOM      4  C3  UNL d   1       4.944   4.254  -0.473  0.00  0.00     0.150 A 
ATOM      5  C4  UNL d   1       6.000   4.087  -1.364  0.00  0.00    -0.007 A 
ATOM      6  C5  UNL d   1       5.997   3.005  -2.243  0.00  0.00     0.039 A 
ENDROOT
BRANCH   4   7
ATOM      7  O   UNL d   1       4.992   5.322   0.372  0.00  0.00    -0.526 OA
ATOM      8  H5  UNL d   1       4.211   5.294   0.949  0.00  0.00     0.418 HD
ENDBRANCH   4   7
TORSDOF 1
ENDMDL
