MODEL 1
REMARK minimizedAffinity 7.20786667
REMARK minimizedRMSD -1
REMARK  1 active torsions:
REMARK  status: ('A' for Active; 'I' for Inactive)
REMARK    1  A    between atoms: C3_4  and  O_7 
ROOT
ATOM      1  C   UNL d   1       4.263   4.285  -0.632  0.00  0.00    -0.033 A 
ATOM      2  C1  UNL d   1       4.738   5.493  -0.118  0.00  0.00     0.039 A 
ATOM      3  C2  UNL d   1       4.974   5.627   1.252  0.00  0.00    -0.080 A 
ATOM      4  C3  UNL d   1       4.732   4.546   2.095  0.00  0.00     0.150 A 
ATOM      5  C4  UNL d   1       4.263   3.338   1.590  0.00  0.00    -0.007 A 
ATOM      6  C5  UNL d   1       4.028   3.207   0.222  0.00  0.00     0.039 A 
ENDROOT
BRANCH   4   7
ATOM      7  O   UNL d   1       4.943   4.630   3.439  0.00  0.00    -0.526 OA
ATOM      8  H5  UNL d   1       5.239   5.532   3.649  0.00  0.00     0.418 HD
ENDBRANCH   4   7
TORSDOF 1
ENDMDL
