MODEL 1
REMARK minimizedAffinity -1.32315099
REMARK minimizedRMSD -1
REMARK  1 active torsions:
REMARK  status: ('A' for Active; 'I' for Inactive)
REMARK    1  A    between atoms: C3_4  and  O_7 
ROOT
ATOM      1  C   UNL d   1      -4.792   0.218   5.994  0.00  0.00    -0.033 A 
ATOM      2  C1  UNL d   1      -3.451   0.605   5.990  0.00  0.00     0.039 A 
ATOM      3  C2  UNL d   1      -3.114   1.960   5.987  0.00  0.00    -0.080 A 
ATOM      4  C3  UNL d   1      -4.126   2.916   5.990  0.00  0.00     0.150 A 
ATOM      5  C4  UNL d   1      -5.464   2.537   5.998  0.00  0.00    -0.007 A 
ATOM      6  C5  UNL d   1      -5.799   1.183   6.000  0.00  0.00     0.039 A 
ENDROOT
BRANCH   4   7
ATOM      7  O   UNL d   1      -3.846   4.250   5.983  0.00  0.00    -0.526 OA
ATOM      8  H5  UNL d   1      -2.882   4.362   5.949  0.00  0.00     0.418 HD
ENDBRANCH   4   7
TORSDOF 1
ENDMDL
