MODEL 1
REMARK minimizedAffinity 8.05711651
REMARK minimizedRMSD -1
REMARK  1 active torsions:
REMARK  status: ('A' for Active; 'I' for Inactive)
REMARK    1  A    between atoms: C3_4  and  O_7 
ROOT
ATOM      1  C   UNL d   1      -1.594  -2.523   0.314  0.00  0.00    -0.033 A 
ATOM      2  C1  UNL d   1      -0.938  -2.318  -0.901  0.00  0.00     0.039 A 
ATOM      3  C2  UNL d   1      -1.423  -1.374  -1.808  0.00  0.00    -0.080 A 
ATOM      4  C3  UNL d   1      -2.563  -0.642  -1.488  0.00  0.00     0.150 A 
ATOM      5  C4  UNL d   1      -3.220  -0.839  -0.278  0.00  0.00    -0.007 A 
ATOM      6  C5  UNL d   1      -2.735  -1.783   0.626  0.00  0.00     0.039 A 
ENDROOT
BRANCH   4   7
ATOM      7  O   UNL d   1      -3.077   0.287  -2.344  0.00  0.00    -0.526 OA
ATOM      8  H5  UNL d   1      -2.536   0.294  -3.151  0.00  0.00     0.418 HD
ENDBRANCH   4   7
TORSDOF 1
ENDMDL
