MODEL 1
REMARK minimizedAffinity 4.8585825
REMARK minimizedRMSD -1
REMARK  1 active torsions:
REMARK  status: ('A' for Active; 'I' for Inactive)
REMARK    1  A    between atoms: C3_4  and  O_7 
ROOT
ATOM      1  C   UNL d   1      -1.504  -3.576   4.708  0.00  0.00    -0.033 A 
ATOM      2  C1  UNL d   1      -2.662  -3.040   4.141  0.00  0.00     0.039 A 
ATOM      3  C2  UNL d   1      -3.092  -1.762   4.505  0.00  0.00    -0.080 A 
ATOM      4  C3  UNL d   1      -2.356  -1.032   5.434  0.00  0.00     0.150 A 
ATOM      5  C4  UNL d   1      -1.199  -1.559   6.000  0.00  0.00    -0.007 A 
ATOM      6  C5  UNL d   1      -0.772  -2.835   5.636  0.00  0.00     0.039 A 
ENDROOT
BRANCH   4   7
ATOM      7  O   UNL d   1      -2.738   0.217   5.824  0.00  0.00    -0.526 OA
ATOM      8  H5  UNL d   1      -3.570   0.439   5.373  0.00  0.00     0.418 HD
ENDBRANCH   4   7
TORSDOF 1
ENDMDL
