MODEL 1
REMARK minimizedAffinity 14.071003
REMARK minimizedRMSD -1
REMARK  1 active torsions:
REMARK  status: ('A' for Active; 'I' for Inactive)
REMARK    1  A    between atoms: C3_4  and  O_7 
ROOT
ATOM      1  C   UNL d   1      -2.495  -1.472   0.681  0.00  0.00    -0.033 A 
ATOM      2  C1  UNL d   1      -1.557  -1.679  -0.333  0.00  0.00     0.039 A 
ATOM      3  C2  UNL d   1      -0.868  -2.890  -0.414  0.00  0.00    -0.080 A 
ATOM      4  C3  UNL d   1      -1.127  -3.886   0.524  0.00  0.00     0.150 A 
ATOM      5  C4  UNL d   1      -2.062  -3.689   1.535  0.00  0.00    -0.007 A 
ATOM      6  C5  UNL d   1      -2.748  -2.478   1.614  0.00  0.00     0.039 A 
ENDROOT
BRANCH   4   7
ATOM      7  O   UNL d   1      -0.476  -5.084   0.489  0.00  0.00    -0.526 OA
ATOM      8  H5  UNL d   1       0.161  -5.067  -0.244  0.00  0.00     0.418 HD
ENDBRANCH   4   7
TORSDOF 1
ENDMDL
