MODEL 1
REMARK minimizedAffinity 3.24430442
REMARK minimizedRMSD -1
REMARK  1 active torsions:
REMARK  status: ('A' for Active; 'I' for Inactive)
REMARK    1  A    between atoms: C3_4  and  O_7 
ROOT
ATOM      1  C   UNL d   1      -0.240   2.615  -4.797  0.00  0.00    -0.033 A 
ATOM      2  C1  UNL d   1      -1.199   2.242  -3.853  0.00  0.00     0.039 A 
ATOM      3  C2  UNL d   1      -2.514   2.693  -3.976  0.00  0.00    -0.080 A 
ATOM      4  C3  UNL d   1      -2.858   3.514  -5.047  0.00  0.00     0.150 A 
ATOM      5  C4  UNL d   1      -1.909   3.886  -5.993  0.00  0.00    -0.007 A 
ATOM      6  C5  UNL d   1      -0.595   3.435  -5.868  0.00  0.00     0.039 A 
ENDROOT
BRANCH   4   7
ATOM      7  O   UNL d   1      -4.128   3.983  -5.206  0.00  0.00    -0.526 OA
ATOM      8  H5  UNL d   1      -4.668   3.668  -4.462  0.00  0.00     0.418 HD
ENDBRANCH   4   7
TORSDOF 1
ENDMDL
