MODEL 1
REMARK minimizedAffinity 4.06828547
REMARK minimizedRMSD -1
REMARK  1 active torsions:
REMARK  status: ('A' for Active; 'I' for Inactive)
REMARK    1  A    between atoms: C3_4  and  O_7 
ROOT
ATOM      1  C   UNL d   1      -2.353  -2.344   1.583  0.00  0.00    -0.033 A 
ATOM      2  C1  UNL d   1      -2.383  -3.193   2.692  0.00  0.00     0.039 A 
ATOM      3  C2  UNL d   1      -1.639  -4.374   2.689  0.00  0.00    -0.080 A 
ATOM      4  C3  UNL d   1      -0.869  -4.694   1.575  0.00  0.00     0.150 A 
ATOM      5  C4  UNL d   1      -0.831  -3.852   0.469  0.00  0.00    -0.007 A 
ATOM      6  C5  UNL d   1      -1.575  -2.673   0.472  0.00  0.00     0.039 A 
ENDROOT
BRANCH   4   7
ATOM      7  O   UNL d   1      -0.129  -5.838   1.524  0.00  0.00    -0.526 OA
ATOM      8  H5  UNL d   1      -0.275  -6.336   2.346  0.00  0.00     0.418 HD
ENDBRANCH   4   7
TORSDOF 1
ENDMDL
