MODEL 1
REMARK minimizedAffinity 6.92944288
REMARK minimizedRMSD -1
REMARK  1 active torsions:
REMARK  status: ('A' for Active; 'I' for Inactive)
REMARK    1  A    between atoms: C3_4  and  O_7 
ROOT
ATOM      1  C   UNL d   1      -2.283  -2.070  -0.336  0.00  0.00    -0.033 A 
ATOM      2  C1  UNL d   1      -1.505  -1.815  -1.467  0.00  0.00     0.039 A 
ATOM      3  C2  UNL d   1      -1.857  -0.785  -2.341  0.00  0.00    -0.080 A 
ATOM      4  C3  UNL d   1      -2.988  -0.019  -2.074  0.00  0.00     0.150 A 
ATOM      5  C4  UNL d   1      -3.766  -0.265  -0.948  0.00  0.00    -0.007 A 
ATOM      6  C5  UNL d   1      -3.413  -1.294  -0.076  0.00  0.00     0.039 A 
ENDROOT
BRANCH   4   7
ATOM      7  O   UNL d   1      -3.375   0.994  -2.901  0.00  0.00    -0.526 OA
ATOM      8  H5  UNL d   1      -2.759   1.029  -3.652  0.00  0.00     0.418 HD
ENDBRANCH   4   7
TORSDOF 1
ENDMDL
