MODEL 1
REMARK minimizedAffinity 5.83693647
REMARK minimizedRMSD -1
REMARK  1 active torsions:
REMARK  status: ('A' for Active; 'I' for Inactive)
REMARK    1  A    between atoms: C3_4  and  O_7 
ROOT
ATOM      1  C   UNL d   1      -5.479   4.114   0.754  0.00  0.00    -0.033 A 
ATOM      2  C1  UNL d   1      -5.999   5.348   0.361  0.00  0.00     0.039 A 
ATOM      3  C2  UNL d   1      -5.489   5.997  -0.765  0.00  0.00    -0.080 A 
ATOM      4  C3  UNL d   1      -4.461   5.401  -1.490  0.00  0.00     0.150 A 
ATOM      5  C4  UNL d   1      -3.940   4.169  -1.107  0.00  0.00    -0.007 A 
ATOM      6  C5  UNL d   1      -4.450   3.523   0.019  0.00  0.00     0.039 A 
ENDROOT
BRANCH   4   7
ATOM      7  O   UNL d   1      -3.928   5.998  -2.593  0.00  0.00    -0.526 OA
ATOM      8  H5  UNL d   1      -4.366   6.856  -2.721  0.00  0.00     0.418 HD
ENDBRANCH   4   7
TORSDOF 1
ENDMDL
