MODEL 1
REMARK minimizedAffinity 3.42580199
REMARK minimizedRMSD -1
REMARK  1 active torsions:
REMARK  status: ('A' for Active; 'I' for Inactive)
REMARK    1  A    between atoms: C3_4  and  O_7 
ROOT
ATOM      1  C   UNL d   1      -5.999   4.886  -5.999  0.00  0.00    -0.033 A 
ATOM      2  C1  UNL d   1      -5.322   6.000  -5.498  0.00  0.00     0.039 A 
ATOM      3  C2  UNL d   1      -4.050   5.854  -4.941  0.00  0.00    -0.080 A 
ATOM      4  C3  UNL d   1      -3.466   4.591  -4.894  0.00  0.00     0.150 A 
ATOM      5  C4  UNL d   1      -4.133   3.478  -5.395  0.00  0.00    -0.007 A 
ATOM      6  C5  UNL d   1      -5.403   3.626  -5.949  0.00  0.00     0.039 A 
ENDROOT
BRANCH   4   7
ATOM      7  O   UNL d   1      -2.228   4.398  -4.356  0.00  0.00    -0.526 OA
ATOM      8  H5  UNL d   1      -1.901   5.251  -4.024  0.00  0.00     0.418 HD
ENDBRANCH   4   7
TORSDOF 1
ENDMDL
