MODEL 1
REMARK minimizedAffinity 5.19993067
REMARK minimizedRMSD -1
REMARK  1 active torsions:
REMARK  status: ('A' for Active; 'I' for Inactive)
REMARK    1  A    between atoms: C3_4  and  O_7 
ROOT
ATOM      1  C   UNL d   1      -1.122  -2.952   0.115  0.00  0.00    -0.033 A 
ATOM      2  C1  UNL d   1      -0.609  -2.853  -1.180  0.00  0.00     0.039 A 
ATOM      3  C2  UNL d   1      -1.163  -1.945  -2.085  0.00  0.00    -0.080 A 
ATOM      4  C3  UNL d   1      -2.227  -1.143  -1.683  0.00  0.00     0.150 A 
ATOM      5  C4  UNL d   1      -2.741  -1.233  -0.393  0.00  0.00    -0.007 A 
ATOM      6  C5  UNL d   1      -2.187  -2.141   0.508  0.00  0.00     0.039 A 
ENDROOT
BRANCH   4   7
ATOM      7  O   UNL d   1      -2.804  -0.246  -2.532  0.00  0.00    -0.526 OA
ATOM      8  H5  UNL d   1      -2.365  -0.314  -3.396  0.00  0.00     0.418 HD
ENDBRANCH   4   7
TORSDOF 1
ENDMDL
