MODEL 1
REMARK minimizedAffinity 7.81307459
REMARK minimizedRMSD -1
REMARK  1 active torsions:
REMARK  status: ('A' for Active; 'I' for Inactive)
REMARK    1  A    between atoms: C3_4  and  O_7 
ROOT
ATOM      1  C   UNL d   1      -1.519  -2.000  -1.208  0.00  0.00    -0.033 A 
ATOM      2  C1  UNL d   1      -1.506  -2.661   0.023  0.00  0.00     0.039 A 
ATOM      3  C2  UNL d   1      -1.143  -4.008   0.090  0.00  0.00    -0.080 A 
ATOM      4  C3  UNL d   1      -0.796  -4.681  -1.078  0.00  0.00     0.150 A 
ATOM      5  C4  UNL d   1      -0.804  -4.028  -2.306  0.00  0.00    -0.007 A 
ATOM      6  C5  UNL d   1      -1.167  -2.684  -2.372  0.00  0.00     0.039 A 
ENDROOT
BRANCH   4   7
ATOM      7  O   UNL d   1      -0.440  -5.997  -1.063  0.00  0.00    -0.526 OA
ATOM      8  H5  UNL d   1      -0.508  -6.324  -0.150  0.00  0.00     0.418 HD
ENDBRANCH   4   7
TORSDOF 1
ENDMDL
