MODEL 1
REMARK minimizedAffinity 4.10072041
REMARK minimizedRMSD -1
REMARK  1 active torsions:
REMARK  status: ('A' for Active; 'I' for Inactive)
REMARK    1  A    between atoms: C3_4  and  O_7 
ROOT
ATOM      1  C   UNL d   1      -0.032   2.493  -4.458  0.00  0.00    -0.033 A 
ATOM      2  C1  UNL d   1      -1.099   1.960  -3.730  0.00  0.00     0.039 A 
ATOM      3  C2  UNL d   1      -2.413   2.216  -4.126  0.00  0.00    -0.080 A 
ATOM      4  C3  UNL d   1      -2.647   3.004  -5.250  0.00  0.00     0.150 A 
ATOM      5  C4  UNL d   1      -1.590   3.534  -5.981  0.00  0.00    -0.007 A 
ATOM      6  C5  UNL d   1      -0.278   3.279  -5.584  0.00  0.00     0.039 A 
ENDROOT
BRANCH   4   7
ATOM      7  O   UNL d   1      -3.912   3.285  -5.672  0.00  0.00    -0.526 OA
ATOM      8  H5  UNL d   1      -4.541   2.876  -5.054  0.00  0.00     0.418 HD
ENDBRANCH   4   7
TORSDOF 1
ENDMDL
