MODEL 1
REMARK minimizedAffinity 10.3148003
REMARK minimizedRMSD -1
REMARK  1 active torsions:
REMARK  status: ('A' for Active; 'I' for Inactive)
REMARK    1  A    between atoms: C3_4  and  O_7 
ROOT
ATOM      1  C   UNL d   1      -0.175   2.604  -4.443  0.00  0.00    -0.033 A 
ATOM      2  C1  UNL d   1      -1.293   2.217  -3.702  0.00  0.00     0.039 A 
ATOM      3  C2  UNL d   1      -2.571   2.606  -4.108  0.00  0.00    -0.080 A 
ATOM      4  C3  UNL d   1      -2.717   3.381  -5.255  0.00  0.00     0.150 A 
ATOM      5  C4  UNL d   1      -1.608   3.768  -6.000  0.00  0.00    -0.007 A 
ATOM      6  C5  UNL d   1      -0.332   3.379  -5.593  0.00  0.00     0.039 A 
ENDROOT
BRANCH   4   7
ATOM      7  O   UNL d   1      -3.943   3.790  -5.688  0.00  0.00    -0.526 OA
ATOM      8  H5  UNL d   1      -4.613   3.473  -5.059  0.00  0.00     0.418 HD
ENDBRANCH   4   7
TORSDOF 1
ENDMDL
