MODEL 1
REMARK minimizedAffinity 4.44459581
REMARK minimizedRMSD -1
REMARK  1 active torsions:
REMARK  status: ('A' for Active; 'I' for Inactive)
REMARK    1  A    between atoms: C3_4  and  O_7 
ROOT
ATOM      1  C   UNL d   1      -4.900   5.248  -5.262  0.00  0.00    -0.033 A 
ATOM      2  C1  UNL d   1      -4.584   4.105  -5.999  0.00  0.00     0.039 A 
ATOM      3  C2  UNL d   1      -3.277   3.612  -6.000  0.00  0.00    -0.080 A 
ATOM      4  C3  UNL d   1      -2.298   4.269  -5.260  0.00  0.00     0.150 A 
ATOM      5  C4  UNL d   1      -2.607   5.406  -4.520  0.00  0.00    -0.007 A 
ATOM      6  C5  UNL d   1      -3.912   5.897  -4.521  0.00  0.00     0.039 A 
ENDROOT
BRANCH   4   7
ATOM      7  O   UNL d   1      -1.009   3.828  -5.234  0.00  0.00    -0.526 OA
ATOM      8  H5  UNL d   1      -0.937   3.052  -5.814  0.00  0.00     0.418 HD
ENDBRANCH   4   7
TORSDOF 1
ENDMDL
