MODEL 1
REMARK minimizedAffinity 4.68370724
REMARK minimizedRMSD -1
REMARK  1 active torsions:
REMARK  status: ('A' for Active; 'I' for Inactive)
REMARK    1  A    between atoms: C3_4  and  O_7 
ROOT
ATOM      1  C   UNL d   1      -5.636   5.887  -5.127  0.00  0.00    -0.033 A 
ATOM      2  C1  UNL d   1      -5.524   4.803  -5.998  0.00  0.00     0.039 A 
ATOM      3  C2  UNL d   1      -4.546   3.829  -5.782  0.00  0.00    -0.080 A 
ATOM      4  C3  UNL d   1      -3.689   3.952  -4.692  0.00  0.00     0.150 A 
ATOM      5  C4  UNL d   1      -3.798   5.028  -3.817  0.00  0.00    -0.007 A 
ATOM      6  C5  UNL d   1      -4.774   5.999  -4.035  0.00  0.00     0.039 A 
ENDROOT
BRANCH   4   7
ATOM      7  O   UNL d   1      -2.717   3.030  -4.443  0.00  0.00    -0.526 OA
ATOM      8  H5  UNL d   1      -2.742   2.359  -5.146  0.00  0.00     0.418 HD
ENDBRANCH   4   7
TORSDOF 1
ENDMDL
