MODEL 1
REMARK minimizedAffinity -5.1850996
REMARK minimizedRMSD -1
REMARK  1 active torsions:
REMARK  status: ('A' for Active; 'I' for Inactive)
REMARK    1  A    between atoms: C1_2  and  C2_3 
ROOT
ATOM      1  C2  UNL d   1      -0.006   0.327  -0.674  0.00  0.00    -0.077 A 
ATOM      2  C3  UNL d   1       0.714  -0.663  -1.357  0.00  0.00     0.002 A 
ATOM      3  C4  UNL d   1       1.371  -1.672  -0.650  0.00  0.00     0.002 A 
ATOM      4  C5  UNL d   1       1.310  -1.703   0.742  0.00  0.00    -0.004 A 
ATOM      5  C6  UNL d   1       0.598  -0.721   1.430  0.00  0.00     0.002 A 
ATOM      6  C7  UNL d   1      -0.058   0.289   0.725  0.00  0.00     0.002 A 
ENDROOT
BRANCH   1   7
ATOM      7  C1  UNL d   1      -0.756   1.388  -1.437  0.00  0.00     0.055 C 
ATOM      8  C   UNL d   1      -1.853   0.780  -2.298  0.00  0.00     0.019 C 
ENDBRANCH   1   7
TORSDOF 1
ENDMDL
