MODEL 1
REMARK minimizedAffinity -4.17455339
REMARK minimizedRMSD -1
REMARK  1 active torsions:
REMARK  status: ('A' for Active; 'I' for Inactive)
REMARK    1  A    between atoms: C1_2  and  C2_3 
ROOT
ATOM      1  C2  UNL d   1       0.250   0.365   0.081  0.00  0.00    -0.077 A 
ATOM      2  C3  UNL d   1      -0.306  -0.722   0.769  0.00  0.00     0.002 A 
ATOM      3  C4  UNL d   1       0.414  -1.910   0.912  0.00  0.00     0.002 A 
ATOM      4  C5  UNL d   1       1.694  -2.020   0.374  0.00  0.00    -0.004 A 
ATOM      5  C6  UNL d   1       2.255  -0.944  -0.313  0.00  0.00     0.002 A 
ATOM      6  C7  UNL d   1       1.537   0.243  -0.458  0.00  0.00     0.002 A 
ENDROOT
BRANCH   1   7
ATOM      7  C1  UNL d   1      -0.505   1.664  -0.031  0.00  0.00     0.055 C 
ATOM      8  C   UNL d   1      -1.390   1.684  -1.270  0.00  0.00     0.019 C 
ENDBRANCH   1   7
TORSDOF 1
ENDMDL
