MODEL 1
REMARK minimizedAffinity -3.17914987
REMARK minimizedRMSD -1
REMARK  1 active torsions:
REMARK  status: ('A' for Active; 'I' for Inactive)
REMARK    1  A    between atoms: C1_2  and  C2_3 
ROOT
ATOM      1  C2  UNL d   1       0.996  -0.790   0.743  0.00  0.00    -0.077 A 
ATOM      2  C3  UNL d   1       1.101   0.301  -0.131  0.00  0.00     0.002 A 
ATOM      3  C4  UNL d   1       0.058   1.224  -0.238  0.00  0.00     0.002 A 
ATOM      4  C5  UNL d   1      -1.094   1.067   0.529  0.00  0.00    -0.004 A 
ATOM      5  C6  UNL d   1      -1.209  -0.016   1.400  0.00  0.00     0.002 A 
ATOM      6  C7  UNL d   1      -0.168  -0.940   1.507  0.00  0.00     0.002 A 
ENDROOT
BRANCH   1   7
ATOM      7  C1  UNL d   1       2.140  -1.758   0.896  0.00  0.00     0.055 C 
ATOM      8  C   UNL d   1       1.676  -3.070   1.510  0.00  0.00     0.019 C 
ENDBRANCH   1   7
TORSDOF 1
ENDMDL
