MODEL 1
REMARK minimizedAffinity -5.20371723
REMARK minimizedRMSD -1
REMARK  1 active torsions:
REMARK  status: ('A' for Active; 'I' for Inactive)
REMARK    1  A    between atoms: C1_2  and  C2_3 
ROOT
ATOM      1  C2  UNL d   1      -0.685   0.174  -0.656  0.00  0.00    -0.077 A 
ATOM      2  C3  UNL d   1      -0.775   1.573  -0.699  0.00  0.00     0.002 A 
ATOM      3  C4  UNL d   1      -1.366   2.209  -1.792  0.00  0.00     0.002 A 
ATOM      4  C5  UNL d   1      -1.875   1.455  -2.848  0.00  0.00    -0.004 A 
ATOM      5  C6  UNL d   1      -1.788   0.064  -2.815  0.00  0.00     0.002 A 
ATOM      6  C7  UNL d   1      -1.197  -0.574  -1.724  0.00  0.00     0.002 A 
ENDROOT
BRANCH   1   7
ATOM      7  C1  UNL d   1      -0.093  -0.516   0.545  0.00  0.00     0.055 C 
ATOM      8  C   UNL d   1       1.247  -1.156   0.210  0.00  0.00     0.019 C 
ENDBRANCH   1   7
TORSDOF 1
ENDMDL
