MODEL 1
REMARK minimizedAffinity -3.38591099
REMARK minimizedRMSD -1
REMARK  1 active torsions:
REMARK  status: ('A' for Active; 'I' for Inactive)
REMARK    1  A    between atoms: C1_2  and  C2_3 
ROOT
ATOM      1  C2  UNL d   1      -0.373   0.335  -0.218  0.00  0.00    -0.077 A 
ATOM      2  C3  UNL d   1       1.008   0.148  -0.368  0.00  0.00     0.002 A 
ATOM      3  C4  UNL d   1       1.627  -0.990   0.151  0.00  0.00     0.002 A 
ATOM      4  C5  UNL d   1       0.873  -1.952   0.821  0.00  0.00    -0.004 A 
ATOM      5  C6  UNL d   1      -0.501  -1.774   0.978  0.00  0.00     0.002 A 
ATOM      6  C7  UNL d   1      -1.121  -0.637   0.460  0.00  0.00     0.002 A 
ENDROOT
BRANCH   1   7
ATOM      7  C1  UNL d   1      -1.051   1.537  -0.820  0.00  0.00     0.055 C 
ATOM      8  C   UNL d   1      -1.894   1.151  -2.028  0.00  0.00     0.019 C 
ENDBRANCH   1   7
TORSDOF 1
ENDMDL
