MODEL 1
REMARK minimizedAffinity -4.201087
REMARK minimizedRMSD -1
REMARK  1 active torsions:
REMARK  status: ('A' for Active; 'I' for Inactive)
REMARK    1  A    between atoms: C1_2  and  C2_3 
ROOT
ATOM      1  C2  UNL d   1      -1.316   0.878  -0.754  0.00  0.00    -0.077 A 
ATOM      2  C3  UNL d   1      -0.209   1.737  -0.693  0.00  0.00     0.002 A 
ATOM      3  C4  UNL d   1       1.022   1.271  -0.227  0.00  0.00     0.002 A 
ATOM      4  C5  UNL d   1       1.159  -0.055   0.178  0.00  0.00    -0.004 A 
ATOM      5  C6  UNL d   1       0.063  -0.916   0.124  0.00  0.00     0.002 A 
ATOM      6  C7  UNL d   1      -1.168  -0.452  -0.341  0.00  0.00     0.002 A 
ENDROOT
BRANCH   1   7
ATOM      7  C1  UNL d   1      -2.631   1.366  -1.303  0.00  0.00     0.055 C 
ATOM      8  C   UNL d   1      -2.504   1.773  -2.763  0.00  0.00     0.019 C 
ENDBRANCH   1   7
TORSDOF 1
ENDMDL
