MODEL 1
REMARK minimizedAffinity -2.70206499
REMARK minimizedRMSD -1
REMARK  1 active torsions:
REMARK  status: ('A' for Active; 'I' for Inactive)
REMARK    1  A    between atoms: C1_2  and  C2_3 
ROOT
ATOM      1  C2  UNL d   1       0.155   0.343  -0.424  0.00  0.00    -0.077 A 
ATOM      2  C3  UNL d   1      -0.379  -0.902  -0.786  0.00  0.00     0.002 A 
ATOM      3  C4  UNL d   1       0.320  -2.078  -0.508  0.00  0.00     0.002 A 
ATOM      4  C5  UNL d   1       1.555  -2.021   0.135  0.00  0.00    -0.004 A 
ATOM      5  C6  UNL d   1       2.095  -0.787   0.496  0.00  0.00     0.002 A 
ATOM      6  C7  UNL d   1       1.398   0.389   0.219  0.00  0.00     0.002 A 
ENDROOT
BRANCH   1   7
ATOM      7  C1  UNL d   1      -0.621   1.609  -0.679  0.00  0.00     0.055 C 
ATOM      8  C   UNL d   1      -1.469   1.496  -1.937  0.00  0.00     0.019 C 
ENDBRANCH   1   7
TORSDOF 1
ENDMDL
