MODEL 1
REMARK minimizedAffinity -5.03717566
REMARK minimizedRMSD -1
REMARK  1 active torsions:
REMARK  status: ('A' for Active; 'I' for Inactive)
REMARK    1  A    between atoms: C1_2  and  C2_3 
ROOT
ATOM      1  C2  UNL d   1       0.039   0.199  -0.021  0.00  0.00    -0.077 A 
ATOM      2  C3  UNL d   1      -0.745  -0.688   0.730  0.00  0.00     0.002 A 
ATOM      3  C4  UNL d   1      -0.176  -1.834   1.289  0.00  0.00     0.002 A 
ATOM      4  C5  UNL d   1       1.180  -2.101   1.107  0.00  0.00    -0.004 A 
ATOM      5  C6  UNL d   1       1.967  -1.226   0.360  0.00  0.00     0.002 A 
ATOM      6  C7  UNL d   1       1.400  -0.080  -0.200  0.00  0.00     0.002 A 
ENDROOT
BRANCH   1   7
ATOM      7  C1  UNL d   1      -0.562   1.461  -0.583  0.00  0.00     0.055 C 
ATOM      8  C   UNL d   1      -1.480   1.160  -1.759  0.00  0.00     0.019 C 
ENDBRANCH   1   7
TORSDOF 1
ENDMDL
