MODEL 1
REMARK minimizedAffinity -3.52124047
REMARK minimizedRMSD -1
REMARK  1 active torsions:
REMARK  status: ('A' for Active; 'I' for Inactive)
REMARK    1  A    between atoms: C1_2  and  C2_3 
ROOT
ATOM      1  C2  UNL d   1      -0.002  -1.276   0.963  0.00  0.00    -0.077 A 
ATOM      2  C3  UNL d   1       1.253  -1.869   1.163  0.00  0.00     0.002 A 
ATOM      3  C4  UNL d   1       2.407  -1.264   0.663  0.00  0.00     0.002 A 
ATOM      4  C5  UNL d   1       2.319  -0.062  -0.036  0.00  0.00    -0.004 A 
ATOM      5  C6  UNL d   1       1.075   0.535  -0.242  0.00  0.00     0.002 A 
ATOM      6  C7  UNL d   1      -0.080  -0.069   0.256  0.00  0.00     0.002 A 
ENDROOT
BRANCH   1   7
ATOM      7  C1  UNL d   1      -1.243  -1.902   1.544  0.00  0.00     0.055 C 
ATOM      8  C   UNL d   1      -2.116  -0.863   2.233  0.00  0.00     0.019 C 
ENDBRANCH   1   7
TORSDOF 1
ENDMDL
