MODEL 1
REMARK minimizedAffinity -4.61032057
REMARK minimizedRMSD -1
REMARK  1 active torsions:
REMARK  status: ('A' for Active; 'I' for Inactive)
REMARK    1  A    between atoms: C1_2  and  C2_3 
ROOT
ATOM      1  C2  UNL d   1       0.396  -0.964   0.421  0.00  0.00    -0.077 A 
ATOM      2  C3  UNL d   1       1.464  -0.450  -0.328  0.00  0.00     0.002 A 
ATOM      3  C4  UNL d   1       1.332   0.764  -1.005  0.00  0.00     0.002 A 
ATOM      4  C5  UNL d   1       0.136   1.476  -0.936  0.00  0.00    -0.004 A 
ATOM      5  C6  UNL d   1      -0.932   0.972  -0.195  0.00  0.00     0.002 A 
ATOM      6  C7  UNL d   1      -0.803  -0.242   0.481  0.00  0.00     0.002 A 
ENDROOT
BRANCH   1   7
ATOM      7  C1  UNL d   1       0.553  -2.249   1.192  0.00  0.00     0.055 C 
ATOM      8  C   UNL d   1       1.840  -2.967   0.815  0.00  0.00     0.019 C 
ENDBRANCH   1   7
TORSDOF 1
ENDMDL
