MODEL 1
REMARK minimizedAffinity -3.73388338
REMARK minimizedRMSD -1
REMARK  1 active torsions:
REMARK  status: ('A' for Active; 'I' for Inactive)
REMARK    1  A    between atoms: C1_2  and  C2_3 
ROOT
ATOM      1  C2  UNL d   1       0.870  -0.841   0.138  0.00  0.00    -0.077 A 
ATOM      2  C3  UNL d   1       1.286   0.230  -0.666  0.00  0.00     0.002 A 
ATOM      3  C4  UNL d   1       0.366   1.186  -1.100  0.00  0.00     0.002 A 
ATOM      4  C5  UNL d   1      -0.974   1.084  -0.732  0.00  0.00    -0.004 A 
ATOM      5  C6  UNL d   1      -1.398   0.022   0.066  0.00  0.00     0.002 A 
ATOM      6  C7  UNL d   1      -0.479  -0.936   0.499  0.00  0.00     0.002 A 
ENDROOT
BRANCH   1   7
ATOM      7  C1  UNL d   1       1.870  -1.846   0.647  0.00  0.00     0.055 C 
ATOM      8  C   UNL d   1       1.299  -3.256   0.623  0.00  0.00     0.019 C 
ENDBRANCH   1   7
TORSDOF 1
ENDMDL
