MODEL 1
REMARK minimizedAffinity -4.20212126
REMARK minimizedRMSD -1
REMARK  1 active torsions:
REMARK  status: ('A' for Active; 'I' for Inactive)
REMARK    1  A    between atoms: C1_2  and  C2_3 
ROOT
ATOM      1  C2  UNL d   1       0.653  -0.836   0.409  0.00  0.00    -0.077 A 
ATOM      2  C3  UNL d   1       0.477   0.275  -0.429  0.00  0.00     0.002 A 
ATOM      3  C4  UNL d   1      -0.630   1.110  -0.271  0.00  0.00     0.002 A 
ATOM      4  C5  UNL d   1      -1.567   0.847   0.726  0.00  0.00    -0.004 A 
ATOM      5  C6  UNL d   1      -1.403  -0.256   1.562  0.00  0.00     0.002 A 
ATOM      6  C7  UNL d   1      -0.297  -1.093   1.405  0.00  0.00     0.002 A 
ENDROOT
BRANCH   1   7
ATOM      7  C1  UNL d   1       1.872  -1.710   0.272  0.00  0.00     0.055 C 
ATOM      8  C   UNL d   1       1.953  -2.728   1.401  0.00  0.00     0.019 C 
ENDBRANCH   1   7
TORSDOF 1
ENDMDL
