MODEL 1
REMARK minimizedAffinity -5.27656078
REMARK minimizedRMSD -1
REMARK  1 active torsions:
REMARK  status: ('A' for Active; 'I' for Inactive)
REMARK    1  A    between atoms: C1_2  and  C2_3 
ROOT
ATOM      1  C2  UNL d   1       0.039   0.317  -0.300  0.00  0.00    -0.077 A 
ATOM      2  C3  UNL d   1       1.433   0.333  -0.449  0.00  0.00     0.002 A 
ATOM      3  C4  UNL d   1       2.202  -0.747  -0.011  0.00  0.00     0.002 A 
ATOM      4  C5  UNL d   1       1.586  -1.851   0.574  0.00  0.00    -0.004 A 
ATOM      5  C6  UNL d   1       0.200  -1.875   0.728  0.00  0.00     0.002 A 
ATOM      6  C7  UNL d   1      -0.570  -0.796   0.292  0.00  0.00     0.002 A 
ENDROOT
BRANCH   1   7
ATOM      7  C1  UNL d   1      -0.797   1.459  -0.816  0.00  0.00     0.055 C 
ATOM      8  C   UNL d   1      -1.766   0.994  -1.893  0.00  0.00     0.019 C 
ENDBRANCH   1   7
TORSDOF 1
ENDMDL
