MODEL 1
REMARK minimizedAffinity -5.70284605
REMARK minimizedRMSD -1
REMARK  1 active torsions:
REMARK  status: ('A' for Active; 'I' for Inactive)
REMARK    1  A    between atoms: C1_2  and  C2_3 
ROOT
ATOM      1  C2  UNL d   1      -0.132  -0.130  -0.111  0.00  0.00    -0.077 A 
ATOM      2  C3  UNL d   1      -0.485  -1.341   0.502  0.00  0.00     0.002 A 
ATOM      3  C4  UNL d   1       0.469  -2.343   0.686  0.00  0.00     0.002 A 
ATOM      4  C5  UNL d   1       1.782  -2.144   0.264  0.00  0.00    -0.004 A 
ATOM      5  C6  UNL d   1       2.142  -0.944  -0.348  0.00  0.00     0.002 A 
ATOM      6  C7  UNL d   1       1.189   0.059  -0.534  0.00  0.00     0.002 A 
ENDROOT
BRANCH   1   7
ATOM      7  C1  UNL d   1      -1.148   0.971  -0.266  0.00  0.00     0.055 C 
ATOM      8  C   UNL d   1      -1.685   1.033  -1.689  0.00  0.00     0.019 C 
ENDBRANCH   1   7
TORSDOF 1
ENDMDL
