MODEL 1
REMARK minimizedAffinity -5.07082748
REMARK minimizedRMSD -1
REMARK  1 active torsions:
REMARK  status: ('A' for Active; 'I' for Inactive)
REMARK    1  A    between atoms: C1_2  and  C2_3 
ROOT
ATOM      1  C2  UNL d   1       0.012  -0.184   0.300  0.00  0.00    -0.077 A 
ATOM      2  C3  UNL d   1      -0.697  -1.049   1.145  0.00  0.00     0.002 A 
ATOM      3  C4  UNL d   1      -0.151  -2.279   1.517  0.00  0.00     0.002 A 
ATOM      4  C5  UNL d   1       1.109  -2.652   1.053  0.00  0.00    -0.004 A 
ATOM      5  C6  UNL d   1       1.821  -1.800   0.210  0.00  0.00     0.002 A 
ATOM      6  C7  UNL d   1       1.276  -0.571  -0.164  0.00  0.00     0.002 A 
ENDROOT
BRANCH   1   7
ATOM      7  C1  UNL d   1      -0.555   1.164  -0.063  0.00  0.00     0.055 C 
ATOM      8  C   UNL d   1      -1.206   1.139  -1.438  0.00  0.00     0.019 C 
ENDBRANCH   1   7
TORSDOF 1
ENDMDL
