MODEL 1
REMARK minimizedAffinity -5.31367064
REMARK minimizedRMSD -1
REMARK  1 active torsions:
REMARK  status: ('A' for Active; 'I' for Inactive)
REMARK    1  A    between atoms: C1_2  and  C2_3 
ROOT
ATOM      1  C2  UNL d   1      -0.122   0.212  -0.022  0.00  0.00    -0.077 A 
ATOM      2  C3  UNL d   1       1.212  -0.028  -0.379  0.00  0.00     0.002 A 
ATOM      3  C4  UNL d   1       1.827  -1.236  -0.044  0.00  0.00     0.002 A 
ATOM      4  C5  UNL d   1       1.114  -2.214   0.647  0.00  0.00    -0.004 A 
ATOM      5  C6  UNL d   1      -0.213  -1.983   1.008  0.00  0.00     0.002 A 
ATOM      6  C7  UNL d   1      -0.828  -0.776   0.675  0.00  0.00     0.002 A 
ENDROOT
BRANCH   1   7
ATOM      7  C1  UNL d   1      -0.801   1.495  -0.427  0.00  0.00     0.055 C 
ATOM      8  C   UNL d   1      -1.693   1.289  -1.643  0.00  0.00     0.019 C 
ENDBRANCH   1   7
TORSDOF 1
ENDMDL
