MODEL 1
REMARK minimizedAffinity 7.64296722
REMARK minimizedRMSD -1
REMARK  2 active torsions:
REMARK  status: ('A' for Active; 'I' for Inactive)
REMARK    1  A    between atoms: C2'_3  and  C1'_4 
REMARK    2  A    between atoms: C1'_4  and  C1_5 
ROOT
ATOM      1  C1  I4B d   1       0.690   0.940   3.597  0.00  0.00    -0.075 A 
ATOM      2  C2  I4B d   1       1.291   0.550   4.767  0.00  0.00     0.003 A 
ATOM      3  C3  I4B d   1       0.917   1.149   5.994  0.00  0.00     0.002 A 
ATOM      4  C4  I4B d   1      -0.020   2.162   5.999  0.00  0.00    -0.004 A 
ATOM      5  C5  I4B d   1      -0.645   2.540   4.814  0.00  0.00     0.002 A 
ATOM      6  C6  I4B d   1      -0.297   1.917   3.607  0.00  0.00     0.003 A 
ENDROOT
BRANCH   1   7
ATOM      7  C1' I4B d   1       1.133   0.309   2.314  0.00  0.00     0.060 C 
BRANCH   7   8
ATOM      8  C2' I4B d   1       0.628  -1.119   2.298  0.00  0.00    -0.013 C 
ATOM      9  C4' I4B d   1       0.873  -1.799   3.619  0.00  0.00     0.013 C 
ATOM     10  C3' I4B d   1      -0.834  -1.090   1.966  0.00  0.00     0.013 C 
ENDBRANCH   7   8
ENDBRANCH   1   7
TORSDOF 2
ENDMDL
