MODEL 1
REMARK minimizedAffinity 12.5816412
REMARK minimizedRMSD -1
REMARK  2 active torsions:
REMARK  status: ('A' for Active; 'I' for Inactive)
REMARK    1  A    between atoms: C2'_3  and  C1'_4 
REMARK    2  A    between atoms: C1'_4  and  C1_5 
ROOT
ATOM      1  C1  I4B d   1       4.814   4.020   2.847  0.00  0.00    -0.075 A 
ATOM      2  C2  I4B d   1       4.613   3.238   1.737  0.00  0.00     0.003 A 
ATOM      3  C3  I4B d   1       4.482   3.835   0.459  0.00  0.00     0.002 A 
ATOM      4  C4  I4B d   1       4.507   5.210   0.346  0.00  0.00    -0.004 A 
ATOM      5  C5  I4B d   1       4.733   6.000   1.470  0.00  0.00     0.002 A 
ATOM      6  C6  I4B d   1       4.900   5.401   2.727  0.00  0.00     0.003 A 
ENDROOT
BRANCH   1   7
ATOM      7  C1' I4B d   1       4.916   3.358   4.185  0.00  0.00     0.060 C 
BRANCH   7   8
ATOM      8  C2' I4B d   1       4.823   1.861   3.974  0.00  0.00    -0.013 C 
ATOM      9  C4' I4B d   1       5.999   1.150   4.590  0.00  0.00     0.013 C 
ATOM     10  C3' I4B d   1       3.531   1.388   4.570  0.00  0.00     0.013 C 
ENDBRANCH   7   8
ENDBRANCH   1   7
TORSDOF 2
ENDMDL
