MODEL 1
REMARK minimizedAffinity 22.9482441
REMARK minimizedRMSD -1
REMARK  2 active torsions:
REMARK  status: ('A' for Active; 'I' for Inactive)
REMARK    1  A    between atoms: C2'_3  and  C1'_4 
REMARK    2  A    between atoms: C1'_4  and  C1_5 
ROOT
ATOM      1  C1  I4B d   1       0.586  -2.279  -4.480  0.00  0.00    -0.075 A 
ATOM      2  C2  I4B d   1       1.934  -2.419  -4.261  0.00  0.00     0.003 A 
ATOM      3  C3  I4B d   1       2.662  -3.436  -4.925  0.00  0.00     0.002 A 
ATOM      4  C4  I4B d   1       1.997  -4.316  -5.755  0.00  0.00    -0.004 A 
ATOM      5  C5  I4B d   1       0.635  -4.158  -5.993  0.00  0.00     0.002 A 
ATOM      6  C6  I4B d   1      -0.073  -3.126  -5.362  0.00  0.00     0.003 A 
ENDROOT
BRANCH   1   7
ATOM      7  C1' I4B d   1      -0.158  -1.215  -3.737  0.00  0.00     0.060 C 
BRANCH   7   8
ATOM      8  C2' I4B d   1       0.065   0.100  -4.456  0.00  0.00    -0.013 C 
ATOM      9  C4' I4B d   1       1.509   0.523  -4.383  0.00  0.00     0.013 C 
ATOM     10  C3' I4B d   1      -0.379  -0.069  -5.878  0.00  0.00     0.013 C 
ENDBRANCH   7   8
ENDBRANCH   1   7
TORSDOF 2
ENDMDL
