MODEL 1
REMARK minimizedAffinity 11.4973698
REMARK minimizedRMSD -1
REMARK  2 active torsions:
REMARK  status: ('A' for Active; 'I' for Inactive)
REMARK    1  A    between atoms: C2'_3  and  C1'_4 
REMARK    2  A    between atoms: C1'_4  and  C1_5 
ROOT
ATOM      1  C1  I4B d   1       2.423   0.538   3.937  0.00  0.00    -0.075 A 
ATOM      2  C2  I4B d   1       3.048   0.853   2.756  0.00  0.00     0.003 A 
ATOM      3  C3  I4B d   1       4.420   1.201   2.746  0.00  0.00     0.002 A 
ATOM      4  C4  I4B d   1       5.112   1.270   3.938  0.00  0.00    -0.004 A 
ATOM      5  C5  I4B d   1       4.483   0.928   5.132  0.00  0.00     0.002 A 
ATOM      6  C6  I4B d   1       3.133   0.547   5.130  0.00  0.00     0.003 A 
ENDROOT
BRANCH   1   7
ATOM      7  C1' I4B d   1       0.964   0.206   3.914  0.00  0.00     0.060 C 
BRANCH   7   8
ATOM      8  C2' I4B d   1       0.451   0.455   2.511  0.00  0.00    -0.013 C 
ATOM      9  C4' I4B d   1       0.193  -0.841   1.788  0.00  0.00     0.013 C 
ATOM     10  C3' I4B d   1      -0.800   1.276   2.614  0.00  0.00     0.013 C 
ENDBRANCH   7   8
ENDBRANCH   1   7
TORSDOF 2
ENDMDL
