MODEL 1
REMARK minimizedAffinity 22.9666481
REMARK minimizedRMSD -1
REMARK  2 active torsions:
REMARK  status: ('A' for Active; 'I' for Inactive)
REMARK    1  A    between atoms: C2'_3  and  C1'_4 
REMARK    2  A    between atoms: C1'_4  and  C1_5 
ROOT
ATOM      1  C1  I4B d   1       2.806   0.600   3.149  0.00  0.00    -0.075 A 
ATOM      2  C2  I4B d   1       3.429   0.674   4.370  0.00  0.00     0.003 A 
ATOM      3  C3  I4B d   1       4.843   0.708   4.448  0.00  0.00     0.002 A 
ATOM      4  C4  I4B d   1       5.590   0.616   3.292  0.00  0.00    -0.004 A 
ATOM      5  C5  I4B d   1       4.956   0.565   2.053  0.00  0.00     0.002 A 
ATOM      6  C6  I4B d   1       3.556   0.569   1.980  0.00  0.00     0.003 A 
ENDROOT
BRANCH   1   7
ATOM      7  C1' I4B d   1       1.313   0.533   3.105  0.00  0.00     0.060 C 
BRANCH   7   8
ATOM      8  C2' I4B d   1       0.892   0.436   1.653  0.00  0.00    -0.013 C 
ATOM      9  C4' I4B d   1       0.408  -0.950   1.317  0.00  0.00     0.013 C 
ATOM     10  C3' I4B d   1      -0.179   1.458   1.412  0.00  0.00     0.013 C 
ENDBRANCH   7   8
ENDBRANCH   1   7
TORSDOF 2
ENDMDL
