MODEL 1
REMARK minimizedAffinity 14.202404
REMARK minimizedRMSD -1
REMARK  2 active torsions:
REMARK  status: ('A' for Active; 'I' for Inactive)
REMARK    1  A    between atoms: C2'_3  and  C1'_4 
REMARK    2  A    between atoms: C1'_4  and  C1_5 
ROOT
ATOM      1  C1  I4B d   1      -0.914  -1.909  -3.909  0.00  0.00    -0.075 A 
ATOM      2  C2  I4B d   1      -0.332  -2.720  -4.851  0.00  0.00     0.003 A 
ATOM      3  C3  I4B d   1       0.905  -2.359  -5.437  0.00  0.00     0.002 A 
ATOM      4  C4  I4B d   1       1.497  -1.161  -5.091  0.00  0.00    -0.004 A 
ATOM      5  C5  I4B d   1       0.918  -0.351  -4.118  0.00  0.00     0.002 A 
ATOM      6  C6  I4B d   1      -0.289  -0.733  -3.514  0.00  0.00     0.003 A 
ENDROOT
BRANCH   1   7
ATOM      7  C1' I4B d   1      -2.237  -2.305  -3.334  0.00  0.00     0.060 C 
BRANCH   7   8
ATOM      8  C2' I4B d   1      -1.987  -2.948  -1.985  0.00  0.00    -0.013 C 
ATOM      9  C4' I4B d   1      -2.862  -2.340  -0.921  0.00  0.00     0.013 C 
ATOM     10  C3' I4B d   1      -2.240  -4.420  -2.120  0.00  0.00     0.013 C 
ENDBRANCH   7   8
ENDBRANCH   1   7
TORSDOF 2
ENDMDL
