MODEL 1
REMARK minimizedAffinity 9.92361069
REMARK minimizedRMSD -1
REMARK  0 active torsions:
REMARK  status: ('A' for Active; 'I' for Inactive)
ROOT
ATOM      1  O1  BZF d   1       2.555  -3.802   4.495  0.00  0.00    -0.204 OA
ATOM      2  C2  BZF d   1       1.911  -2.639   4.119  0.00  0.00     0.174 A 
ATOM      3  C3  BZF d   1       2.653  -1.558   4.433  0.00  0.00    -0.012 A 
ATOM      4  C3A BZF d   1       3.876  -2.081   4.959  0.00  0.00    -0.107 A 
ATOM      5  C4  BZF d   1       5.020  -1.502   5.431  0.00  0.00     0.055 A 
ATOM      6  C5  BZF d   1       5.999  -2.293   5.941  0.00  0.00    -0.016 A 
ATOM      7  C6  BZF d   1       5.868  -3.665   5.999  0.00  0.00     0.022 A 
ATOM      8  C7  BZF d   1       4.754  -4.286   5.539  0.00  0.00     0.029 A 
ATOM      9  C7A BZF d   1       3.776  -3.491   4.993  0.00  0.00     0.058 A 
ENDROOT
TORSDOF 0
ENDMDL
