MODEL 1
REMARK minimizedAffinity 7.05143547
REMARK minimizedRMSD -1
REMARK  0 active torsions:
REMARK  status: ('A' for Active; 'I' for Inactive)
ROOT
ATOM      1  O1  BZF d   1       5.881  -1.877   4.294  0.00  0.00    -0.204 OA
ATOM      2  C2  BZF d   1       6.000  -2.625   5.449  0.00  0.00     0.174 A 
ATOM      3  C3  BZF d   1       4.790  -2.851   6.000  0.00  0.00    -0.012 A 
ATOM      4  C3A BZF d   1       3.848  -2.281   5.086  0.00  0.00    -0.107 A 
ATOM      5  C4  BZF d   1       2.485  -2.200   5.071  0.00  0.00     0.055 A 
ATOM      6  C5  BZF d   1       1.875  -1.513   4.069  0.00  0.00    -0.016 A 
ATOM      7  C6  BZF d   1       2.596  -0.892   3.071  0.00  0.00     0.022 A 
ATOM      8  C7  BZF d   1       3.950  -0.949   3.040  0.00  0.00     0.029 A 
ATOM      9  C7A BZF d   1       4.567  -1.670   4.033  0.00  0.00     0.058 A 
ENDROOT
TORSDOF 0
ENDMDL
