MODEL 1
REMARK minimizedAffinity 15.4148254
REMARK minimizedRMSD -1
REMARK  0 active torsions:
REMARK  status: ('A' for Active; 'I' for Inactive)
ROOT
ATOM      1  O1  BZF d   1       0.893  -0.850   2.873  0.00  0.00    -0.204 OA
ATOM      2  C2  BZF d   1       2.056  -1.477   3.277  0.00  0.00     0.174 A 
ATOM      3  C3  BZF d   1       2.489  -2.337   2.332  0.00  0.00    -0.012 A 
ATOM      4  C3A BZF d   1       1.588  -2.173   1.233  0.00  0.00    -0.107 A 
ATOM      5  C4  BZF d   1       1.506  -2.741  -0.007  0.00  0.00     0.055 A 
ATOM      6  C5  BZF d   1       0.462  -2.416  -0.814  0.00  0.00    -0.016 A 
ATOM      7  C6  BZF d   1      -0.518  -1.532  -0.413  0.00  0.00     0.022 A 
ATOM      8  C7  BZF d   1      -0.477  -0.939   0.805  0.00  0.00     0.029 A 
ATOM      9  C7A BZF d   1       0.594  -1.241   1.610  0.00  0.00     0.058 A 
ENDROOT
TORSDOF 0
ENDMDL
