MODEL 1
REMARK minimizedAffinity 18.3913422
REMARK minimizedRMSD -1
REMARK  0 active torsions:
REMARK  status: ('A' for Active; 'I' for Inactive)
ROOT
ATOM      1  O1  BZF d   1       2.396  -1.206   5.713  0.00  0.00    -0.204 OA
ATOM      2  C2  BZF d   1       2.348  -2.579   5.565  0.00  0.00     0.174 A 
ATOM      3  C3  BZF d   1       2.189  -2.914   4.268  0.00  0.00    -0.012 A 
ATOM      4  C3A BZF d   1       2.227  -1.676   3.552  0.00  0.00    -0.107 A 
ATOM      5  C4  BZF d   1       2.138  -1.354   2.228  0.00  0.00     0.055 A 
ATOM      6  C5  BZF d   1       2.138  -0.044   1.865  0.00  0.00    -0.016 A 
ATOM      7  C6  BZF d   1       2.219   0.968   2.798  0.00  0.00     0.022 A 
ATOM      8  C7  BZF d   1       2.314   0.698   4.123  0.00  0.00     0.029 A 
ATOM      9  C7A BZF d   1       2.348  -0.625   4.491  0.00  0.00     0.058 A 
ENDROOT
TORSDOF 0
ENDMDL
