MODEL 1
REMARK minimizedAffinity 6.55772161
REMARK minimizedRMSD -1
REMARK  0 active torsions:
REMARK  status: ('A' for Active; 'I' for Inactive)
ROOT
ATOM      1  O1  BZF d   1       5.661  -1.734   4.083  0.00  0.00    -0.204 OA
ATOM      2  C2  BZF d   1       5.999  -2.262   5.314  0.00  0.00     0.174 A 
ATOM      3  C3  BZF d   1       4.896  -2.623   5.999  0.00  0.00    -0.012 A 
ATOM      4  C3A BZF d   1       3.803  -2.386   5.106  0.00  0.00    -0.107 A 
ATOM      5  C4  BZF d   1       2.453  -2.565   5.206  0.00  0.00     0.055 A 
ATOM      6  C5  BZF d   1       1.656  -2.165   4.180  0.00  0.00    -0.016 A 
ATOM      7  C6  BZF d   1       2.175  -1.579   3.044  0.00  0.00     0.022 A 
ATOM      8  C7  BZF d   1       3.508  -1.386   2.897  0.00  0.00     0.029 A 
ATOM      9  C7A BZF d   1       4.319  -1.819   3.918  0.00  0.00     0.058 A 
ENDROOT
TORSDOF 0
ENDMDL
