MODEL 1
REMARK minimizedAffinity 0.318516046
REMARK minimizedRMSD -1
REMARK  0 active torsions:
REMARK  status: ('A' for Active; 'I' for Inactive)
ROOT
ATOM      1  O1  BZF d   1       5.682  -1.961   3.388  0.00  0.00    -0.204 OA
ATOM      2  C2  BZF d   1       5.995  -2.636   4.552  0.00  0.00     0.174 A 
ATOM      3  C3  BZF d   1       4.892  -2.833   5.302  0.00  0.00    -0.012 A 
ATOM      4  C3A BZF d   1       3.808  -2.326   4.518  0.00  0.00    -0.107 A 
ATOM      5  C4  BZF d   1       2.459  -2.252   4.718  0.00  0.00     0.055 A 
ATOM      6  C5  BZF d   1       1.687  -1.631   3.788  0.00  0.00    -0.016 A 
ATOM      7  C6  BZF d   1       2.230  -1.069   2.651  0.00  0.00     0.022 A 
ATOM      8  C7  BZF d   1       3.562  -1.122   2.407  0.00  0.00     0.029 A 
ATOM      9  C7A BZF d   1       4.341  -1.777   3.329  0.00  0.00     0.058 A 
ENDROOT
TORSDOF 0
ENDMDL
