MODEL 1
REMARK minimizedAffinity -1.2128458
REMARK minimizedRMSD -1
REMARK  0 active torsions:
REMARK  status: ('A' for Active; 'I' for Inactive)
ROOT
ATOM      1  O1  BZF d   1       5.782  -2.200   3.957  0.00  0.00    -0.204 OA
ATOM      2  C2  BZF d   1       5.999  -2.602   5.261  0.00  0.00     0.174 A 
ATOM      3  C3  BZF d   1       4.880  -2.456   6.000  0.00  0.00    -0.012 A 
ATOM      4  C3A BZF d   1       3.877  -2.016   5.079  0.00  0.00    -0.107 A 
ATOM      5  C4  BZF d   1       2.552  -1.713   5.210  0.00  0.00     0.055 A 
ATOM      6  C5  BZF d   1       1.873  -1.242   4.131  0.00  0.00    -0.016 A 
ATOM      7  C6  BZF d   1       2.488  -1.058   2.909  0.00  0.00     0.022 A 
ATOM      8  C7  BZF d   1       3.799  -1.350   2.730  0.00  0.00     0.029 A 
ATOM      9  C7A BZF d   1       4.480  -1.856   3.810  0.00  0.00     0.058 A 
ENDROOT
TORSDOF 0
ENDMDL
