MODEL 1
REMARK minimizedAffinity 4.10443735
REMARK minimizedRMSD -1
REMARK  0 active torsions:
REMARK  status: ('A' for Active; 'I' for Inactive)
ROOT
ATOM      1  O1  BZF d   1       2.509   4.074  -0.610  0.00  0.00    -0.204 OA
ATOM      2  C2  BZF d   1       1.230   4.596  -0.656  0.00  0.00     0.174 A 
ATOM      3  C3  BZF d   1       0.362   3.792  -0.010  0.00  0.00    -0.012 A 
ATOM      4  C3A BZF d   1       1.162   2.745   0.548  0.00  0.00    -0.107 A 
ATOM      5  C4  BZF d   1       0.876   1.650   1.313  0.00  0.00     0.055 A 
ATOM      6  C5  BZF d   1       1.876   0.786   1.629  0.00  0.00    -0.016 A 
ATOM      7  C6  BZF d   1       3.170   0.982   1.193  0.00  0.00     0.022 A 
ATOM      8  C7  BZF d   1       3.503   2.056   0.437  0.00  0.00     0.029 A 
ATOM      9  C7A BZF d   1       2.502   2.949   0.143  0.00  0.00     0.058 A 
ENDROOT
TORSDOF 0
ENDMDL
