MODEL 1
REMARK minimizedAffinity 8.21263599
REMARK minimizedRMSD -1
REMARK  0 active torsions:
REMARK  status: ('A' for Active; 'I' for Inactive)
ROOT
ATOM      1  O1  BZF d   1      -5.469  -0.622  -5.497  0.00  0.00    -0.204 OA
ATOM      2  C2  BZF d   1      -5.793  -1.348  -4.367  0.00  0.00     0.174 A 
ATOM      3  C3  BZF d   1      -5.999  -0.529  -3.315  0.00  0.00    -0.012 A 
ATOM      4  C3A BZF d   1      -5.882   0.796  -3.841  0.00  0.00    -0.107 A 
ATOM      5  C4  BZF d   1      -5.999   2.039  -3.288  0.00  0.00     0.055 A 
ATOM      6  C5  BZF d   1      -5.753   3.131  -4.059  0.00  0.00    -0.016 A 
ATOM      7  C6  BZF d   1      -5.384   3.016  -5.383  0.00  0.00     0.022 A 
ATOM      8  C7  BZF d   1      -5.260   1.804  -5.977  0.00  0.00     0.029 A 
ATOM      9  C7A BZF d   1      -5.539   0.700  -5.209  0.00  0.00     0.058 A 
ENDROOT
TORSDOF 0
ENDMDL
