MODEL 1
REMARK minimizedAffinity 1.53646231
REMARK minimizedRMSD -1
REMARK  0 active torsions:
REMARK  status: ('A' for Active; 'I' for Inactive)
ROOT
ATOM      1  O1  BZF d   1       4.525   1.588  -3.810  0.00  0.00    -0.204 OA
ATOM      2  C2  BZF d   1       4.528   2.334  -4.973  0.00  0.00     0.174 A 
ATOM      3  C3  BZF d   1       5.032   1.619  -5.999  0.00  0.00    -0.012 A 
ATOM      4  C3A BZF d   1       5.281   0.316  -5.464  0.00  0.00    -0.107 A 
ATOM      5  C4  BZF d   1       5.768  -0.842  -6.000  0.00  0.00     0.055 A 
ATOM      6  C5  BZF d   1       5.956  -1.917  -5.190  0.00  0.00    -0.016 A 
ATOM      7  C6  BZF d   1       5.673  -1.867  -3.841  0.00  0.00     0.022 A 
ATOM      8  C7  BZF d   1       5.183  -0.743  -3.264  0.00  0.00     0.029 A 
ATOM      9  C7A BZF d   1       4.961   0.335  -4.087  0.00  0.00     0.058 A 
ENDROOT
TORSDOF 0
ENDMDL
