MODEL 1
REMARK minimizedAffinity 6.98077965
REMARK minimizedRMSD -1
REMARK  3 active torsions:
REMARK  status: ('A' for Active; 'I' for Inactive)
REMARK    1  A    between atoms: C3'_2  and  C2'_3 
REMARK    2  A    between atoms: C2'_3  and  C1'_4 
REMARK    3  A    between atoms: C1'_4  and  C1_5 
ROOT
ATOM      1  C1  N4B d   1       1.128  -1.493   2.488  0.00  0.00    -0.075 A 
ATOM      2  C2  N4B d   1      -0.043  -2.247   2.252  0.00  0.00     0.002 A 
ATOM      3  C3  N4B d   1      -1.192  -1.618   1.839  0.00  0.00     0.002 A 
ATOM      4  C4  N4B d   1      -1.199  -0.242   1.673  0.00  0.00    -0.004 A 
ATOM      5  C5  N4B d   1      -0.057   0.476   1.879  0.00  0.00     0.002 A 
ATOM      6  C6  N4B d   1       1.106  -0.143   2.291  0.00  0.00     0.002 A 
ENDROOT
BRANCH   1   7
ATOM      7  C1' N4B d   1       2.384  -2.124   3.023  0.00  0.00     0.057 C 
BRANCH   7   8
ATOM      8  C2' N4B d   1       2.762  -1.450   4.339  0.00  0.00     0.009 C 
BRANCH   8   9
ATOM      9  C3' N4B d   1       1.839  -1.860   5.473  0.00  0.00     0.004 C 
ATOM     10  C4' N4B d   1       1.020  -0.718   5.997  0.00  0.00     0.003 C 
ENDBRANCH   8   9
ENDBRANCH   7   8
ENDBRANCH   1   7
TORSDOF 3
ENDMDL
