MODEL 1
REMARK minimizedAffinity 8.93415642
REMARK minimizedRMSD -1
REMARK  3 active torsions:
REMARK  status: ('A' for Active; 'I' for Inactive)
REMARK    1  A    between atoms: C3'_2  and  C2'_3 
REMARK    2  A    between atoms: C2'_3  and  C1'_4 
REMARK    3  A    between atoms: C1'_4  and  C1_5 
ROOT
ATOM      1  C1  N4B d   1       1.196  -1.112  -4.770  0.00  0.00    -0.075 A 
ATOM      2  C2  N4B d   1       0.275  -2.123  -4.416  0.00  0.00     0.002 A 
ATOM      3  C3  N4B d   1      -1.029  -2.043  -4.840  0.00  0.00     0.002 A 
ATOM      4  C4  N4B d   1      -1.438  -0.957  -5.600  0.00  0.00    -0.004 A 
ATOM      5  C5  N4B d   1      -0.536   0.002  -5.959  0.00  0.00     0.002 A 
ATOM      6  C6  N4B d   1       0.778  -0.068  -5.543  0.00  0.00     0.002 A 
ENDROOT
BRANCH   1   7
ATOM      7  C1' N4B d   1       2.610  -1.112  -4.258  0.00  0.00     0.057 C 
BRANCH   7   8
ATOM      8  C2' N4B d   1       3.565  -0.877  -5.425  0.00  0.00     0.009 C 
BRANCH   8   9
ATOM      9  C3' N4B d   1       4.790  -1.772  -5.346  0.00  0.00     0.004 C 
ATOM     10  C4' N4B d   1       5.995  -1.166  -6.000  0.00  0.00     0.003 C 
ENDBRANCH   8   9
ENDBRANCH   7   8
ENDBRANCH   1   7
TORSDOF 3
ENDMDL
