MODEL 1
REMARK minimizedAffinity -0.0303111449
REMARK minimizedRMSD -1
REMARK  3 active torsions:
REMARK  status: ('A' for Active; 'I' for Inactive)
REMARK    1  A    between atoms: C3'_2  and  C2'_3 
REMARK    2  A    between atoms: C2'_3  and  C1'_4 
REMARK    3  A    between atoms: C1'_4  and  C1_5 
ROOT
ATOM      1  C1  N4B d   1      -0.098   0.165   2.212  0.00  0.00    -0.075 A 
ATOM      2  C2  N4B d   1      -1.478   0.134   1.915  0.00  0.00     0.002 A 
ATOM      3  C3  N4B d   1      -2.174  -1.046   2.007  0.00  0.00     0.002 A 
ATOM      4  C4  N4B d   1      -1.510  -2.207   2.373  0.00  0.00    -0.004 A 
ATOM      5  C5  N4B d   1      -0.182  -2.164   2.683  0.00  0.00     0.002 A 
ATOM      6  C6  N4B d   1       0.529  -0.984   2.600  0.00  0.00     0.002 A 
ENDROOT
BRANCH   1   7
ATOM      7  C1' N4B d   1       0.723   1.414   2.043  0.00  0.00     0.057 C 
BRANCH   7   8
ATOM      8  C2' N4B d   1       1.999   1.075   1.278  0.00  0.00     0.009 C 
BRANCH   8   9
ATOM      9  C3' N4B d   1       2.702   2.320   0.765  0.00  0.00     0.004 C 
ATOM     10  C4' N4B d   1       2.374   3.544   1.568  0.00  0.00     0.003 C 
ENDBRANCH   8   9
ENDBRANCH   7   8
ENDBRANCH   1   7
TORSDOF 3
ENDMDL
