MODEL 1
REMARK minimizedAffinity 5.39864063
REMARK minimizedRMSD -1
REMARK  3 active torsions:
REMARK  status: ('A' for Active; 'I' for Inactive)
REMARK    1  A    between atoms: C3'_2  and  C2'_3 
REMARK    2  A    between atoms: C2'_3  and  C1'_4 
REMARK    3  A    between atoms: C1'_4  and  C1_5 
ROOT
ATOM      1  C1  N4B d   1      -2.785  -1.176  -0.698  0.00  0.00    -0.075 A 
ATOM      2  C2  N4B d   1      -3.244   0.010  -0.085  0.00  0.00     0.002 A 
ATOM      3  C3  N4B d   1      -3.461   0.043   1.271  0.00  0.00     0.002 A 
ATOM      4  C4  N4B d   1      -3.243  -1.099   2.028  0.00  0.00    -0.004 A 
ATOM      5  C5  N4B d   1      -2.775  -2.233   1.431  0.00  0.00     0.002 A 
ATOM      6  C6  N4B d   1      -2.549  -2.279   0.070  0.00  0.00     0.002 A 
ENDROOT
BRANCH   1   7
ATOM      7  C1' N4B d   1      -2.616  -1.285  -2.189  0.00  0.00     0.057 C 
BRANCH   7   8
ATOM      8  C2' N4B d   1      -1.182  -1.701  -2.502  0.00  0.00     0.009 C 
BRANCH   8   9
ATOM      9  C3' N4B d   1      -0.701  -1.132  -3.826  0.00  0.00     0.004 C 
ATOM     10  C4' N4B d   1      -1.602  -1.487  -4.971  0.00  0.00     0.003 C 
ENDBRANCH   8   9
ENDBRANCH   7   8
ENDBRANCH   1   7
TORSDOF 3
ENDMDL
