MODEL 1
REMARK minimizedAffinity -1.61386609
REMARK minimizedRMSD -1
REMARK  0 active torsions:
REMARK  status: ('A' for Active; 'I' for Inactive)
ROOT
ATOM      1  C   UNL d   1       1.136   0.437  -1.021  0.00  0.00     0.020 A 
ATOM      2  C1  UNL d   1       2.017  -0.254  -0.190  0.00  0.00     0.020 A 
ATOM      3  C2  UNL d   1       1.521  -1.079   0.822  0.00  0.00     0.034 A 
ATOM      4  C3  UNL d   1       0.140  -1.214   1.007  0.00  0.00     0.017 A 
ATOM      5  C4  UNL d   1      -0.743  -0.520   0.173  0.00  0.00     0.017 A 
ATOM      6  C5  UNL d   1      -0.241   0.304  -0.840  0.00  0.00     0.034 A 
ATOM      7 Cl   UNL d   1      -2.460  -0.636   0.339  0.00  0.00    -0.070 Cl
ATOM      8 Cl1  UNL d   1      -0.403  -2.250   2.278  0.00  0.00    -0.070 Cl
ENDROOT
TORSDOF 0
ENDMDL
