MODEL 1
REMARK minimizedAffinity -3.70183945
REMARK minimizedRMSD -1
REMARK  0 active torsions:
REMARK  status: ('A' for Active; 'I' for Inactive)
ROOT
ATOM      1  C   UNL d   1       1.755   2.752   0.574  0.00  0.00     0.020 A 
ATOM      2  C1  UNL d   1       2.514   3.454   1.509  0.00  0.00     0.020 A 
ATOM      3  C2  UNL d   1       3.132   2.773   2.560  0.00  0.00     0.034 A 
ATOM      4  C3  UNL d   1       2.992   1.386   2.679  0.00  0.00     0.017 A 
ATOM      5  C4  UNL d   1       2.230   0.682   1.739  0.00  0.00     0.017 A 
ATOM      6  C5  UNL d   1       1.613   1.369   0.689  0.00  0.00     0.034 A 
ATOM      7 Cl   UNL d   1       2.011  -1.031   1.819  0.00  0.00    -0.070 Cl
ATOM      8 Cl1  UNL d   1       3.783   0.608   4.003  0.00  0.00    -0.070 Cl
ENDROOT
TORSDOF 0
ENDMDL
