MODEL 1
REMARK minimizedAffinity -4.86287069
REMARK minimizedRMSD -1
REMARK  0 active torsions:
REMARK  status: ('A' for Active; 'I' for Inactive)
ROOT
ATOM      1  C   UNL d   1      -2.736  -0.680   0.976  0.00  0.00     0.020 A 
ATOM      2  C1  UNL d   1      -3.158  -0.908  -0.334  0.00  0.00     0.020 A 
ATOM      3  C2  UNL d   1      -2.292  -0.657  -1.400  0.00  0.00     0.034 A 
ATOM      4  C3  UNL d   1      -1.000  -0.177  -1.159  0.00  0.00     0.017 A 
ATOM      5  C4  UNL d   1      -0.577   0.052   0.156  0.00  0.00     0.017 A 
ATOM      6  C5  UNL d   1      -1.449  -0.201   1.220  0.00  0.00     0.034 A 
ATOM      7 Cl   UNL d   1       1.002   0.644   0.532  0.00  0.00    -0.070 Cl
ATOM      8 Cl1  UNL d   1       0.018   0.112  -2.525  0.00  0.00    -0.070 Cl
ENDROOT
TORSDOF 0
ENDMDL
