MODEL 1
REMARK minimizedAffinity -0.140420869
REMARK minimizedRMSD -1
REMARK  0 active torsions:
REMARK  status: ('A' for Active; 'I' for Inactive)
ROOT
ATOM      1  C   UNL d   1       4.560   4.436  -0.661  0.00  0.00     0.020 A 
ATOM      2  C1  UNL d   1       4.572   3.187  -1.281  0.00  0.00     0.020 A 
ATOM      3  C2  UNL d   1       3.879   2.118  -0.710  0.00  0.00     0.034 A 
ATOM      4  C3  UNL d   1       3.171   2.295   0.485  0.00  0.00     0.017 A 
ATOM      5  C4  UNL d   1       3.160   3.548   1.106  0.00  0.00     0.017 A 
ATOM      6  C5  UNL d   1       3.856   4.616   0.530  0.00  0.00     0.034 A 
ATOM      7 Cl   UNL d   1       2.310   3.844   2.582  0.00  0.00    -0.070 Cl
ATOM      8 Cl1  UNL d   1       2.337   0.928   1.134  0.00  0.00    -0.070 Cl
ENDROOT
TORSDOF 0
ENDMDL
