MODEL 1
REMARK minimizedAffinity -4.1608696
REMARK minimizedRMSD -1
REMARK  0 active torsions:
REMARK  status: ('A' for Active; 'I' for Inactive)
ROOT
ATOM      1  C   UNL d   1       0.868  -0.467   0.346  0.00  0.00     0.020 A 
ATOM      2  C1  UNL d   1      -0.007  -0.138  -0.688  0.00  0.00     0.020 A 
ATOM      3  C2  UNL d   1       0.433  -0.173  -2.013  0.00  0.00     0.034 A 
ATOM      4  C3  UNL d   1       1.752  -0.538  -2.308  0.00  0.00     0.017 A 
ATOM      5  C4  UNL d   1       2.630  -0.869  -1.269  0.00  0.00     0.017 A 
ATOM      6  C5  UNL d   1       2.184  -0.832   0.056  0.00  0.00     0.034 A 
ATOM      7 Cl   UNL d   1       4.271  -1.329  -1.554  0.00  0.00    -0.070 Cl
ATOM      8 Cl1  UNL d   1       2.228  -0.560  -3.968  0.00  0.00    -0.070 Cl
ENDROOT
TORSDOF 0
ENDMDL
