MODEL 1
REMARK minimizedAffinity -1.4430033
REMARK minimizedRMSD -1
REMARK  0 active torsions:
REMARK  status: ('A' for Active; 'I' for Inactive)
ROOT
ATOM      1  C   UNL d   1       0.816  -0.260   0.675  0.00  0.00     0.020 A 
ATOM      2  C1  UNL d   1       0.003  -0.761   1.692  0.00  0.00     0.020 A 
ATOM      3  C2  UNL d   1      -1.358  -0.967   1.459  0.00  0.00     0.034 A 
ATOM      4  C3  UNL d   1      -1.911  -0.672   0.208  0.00  0.00     0.017 A 
ATOM      5  C4  UNL d   1      -1.095  -0.169  -0.811  0.00  0.00     0.017 A 
ATOM      6  C5  UNL d   1       0.268   0.035  -0.573  0.00  0.00     0.034 A 
ATOM      7 Cl   UNL d   1      -1.705   0.218  -2.381  0.00  0.00    -0.070 Cl
ATOM      8 Cl1  UNL d   1      -3.603  -0.952  -0.009  0.00  0.00    -0.070 Cl
ENDROOT
TORSDOF 0
ENDMDL
