MODEL 1
REMARK minimizedAffinity -4.14097595
REMARK minimizedRMSD -1
REMARK  0 active torsions:
REMARK  status: ('A' for Active; 'I' for Inactive)
ROOT
ATOM      1  C   UNL d   1       3.584   3.389   0.322  0.00  0.00     0.020 A 
ATOM      2  C1  UNL d   1       2.749   3.244   1.429  0.00  0.00     0.020 A 
ATOM      3  C2  UNL d   1       2.069   2.043   1.638  0.00  0.00     0.034 A 
ATOM      4  C3  UNL d   1       2.222   0.982   0.738  0.00  0.00     0.017 A 
ATOM      5  C4  UNL d   1       3.060   1.129  -0.374  0.00  0.00     0.017 A 
ATOM      6  C5  UNL d   1       3.739   2.334  -0.578  0.00  0.00     0.034 A 
ATOM      7 Cl   UNL d   1       3.299  -0.136  -1.527  0.00  0.00    -0.070 Cl
ATOM      8 Cl1  UNL d   1       1.350  -0.475   1.058  0.00  0.00    -0.070 Cl
ENDROOT
TORSDOF 0
ENDMDL
