MODEL 1
REMARK minimizedAffinity -0.204367846
REMARK minimizedRMSD -1
REMARK  0 active torsions:
REMARK  status: ('A' for Active; 'I' for Inactive)
ROOT
ATOM      1  C   UNL d   1       2.619   2.759   1.937  0.00  0.00     0.020 A 
ATOM      2  C1  UNL d   1       3.321   3.035   0.765  0.00  0.00     0.020 A 
ATOM      3  C2  UNL d   1       3.318   2.113  -0.284  0.00  0.00     0.034 A 
ATOM      4  C3  UNL d   1       2.611   0.911  -0.164  0.00  0.00     0.017 A 
ATOM      5  C4  UNL d   1       1.906   0.635   1.014  0.00  0.00     0.017 A 
ATOM      6  C5  UNL d   1       1.913   1.562   2.061  0.00  0.00     0.034 A 
ATOM      7 Cl   UNL d   1       1.011  -0.826   1.236  0.00  0.00    -0.070 Cl
ATOM      8 Cl1  UNL d   1       2.651  -0.182  -1.501  0.00  0.00    -0.070 Cl
ENDROOT
TORSDOF 0
ENDMDL
