MODEL 1
REMARK minimizedAffinity 3.20867848
REMARK minimizedRMSD -1
REMARK  0 active torsions:
REMARK  status: ('A' for Active; 'I' for Inactive)
ROOT
ATOM      1  C   UNL d   1       0.693  -0.359   1.256  0.00  0.00     0.020 A 
ATOM      2  C1  UNL d   1      -0.264  -1.258   1.726  0.00  0.00     0.020 A 
ATOM      3  C2  UNL d   1      -1.210  -1.793   0.848  0.00  0.00     0.034 A 
ATOM      4  C3  UNL d   1      -1.202  -1.428  -0.503  0.00  0.00     0.017 A 
ATOM      5  C4  UNL d   1      -0.241  -0.526  -0.973  0.00  0.00     0.017 A 
ATOM      6  C5  UNL d   1       0.704   0.006  -0.091  0.00  0.00     0.034 A 
ATOM      7 Cl   UNL d   1      -0.167  -0.029  -2.627  0.00  0.00    -0.070 Cl
ATOM      8 Cl1  UNL d   1      -2.401  -2.128  -1.532  0.00  0.00    -0.070 Cl
ENDROOT
TORSDOF 0
ENDMDL
