MODEL 1
REMARK minimizedAffinity 1.02192891
REMARK minimizedRMSD -1
REMARK  0 active torsions:
REMARK  status: ('A' for Active; 'I' for Inactive)
ROOT
ATOM      1  C   UNL d   1       1.504   0.017   0.808  0.00  0.00     0.020 A 
ATOM      2  C1  UNL d   1       0.741   0.833  -0.028  0.00  0.00     0.020 A 
ATOM      3  C2  UNL d   1      -0.628   0.599  -0.171  0.00  0.00     0.034 A 
ATOM      4  C3  UNL d   1      -1.239  -0.453   0.521  0.00  0.00     0.017 A 
ATOM      5  C4  UNL d   1      -0.473  -1.271   1.359  0.00  0.00     0.017 A 
ATOM      6  C5  UNL d   1       0.898  -1.033   1.499  0.00  0.00     0.034 A 
ATOM      7 Cl   UNL d   1      -1.156  -2.588   2.246  0.00  0.00    -0.070 Cl
ATOM      8 Cl1  UNL d   1      -2.937  -0.683   0.296  0.00  0.00    -0.070 Cl
ENDROOT
TORSDOF 0
ENDMDL
