MODEL 1
REMARK minimizedAffinity -3.67705631
REMARK minimizedRMSD -1
REMARK  0 active torsions:
REMARK  status: ('A' for Active; 'I' for Inactive)
ROOT
ATOM      1  C   UNL d   1       3.495   3.250  -0.142  0.00  0.00     0.020 A 
ATOM      2  C1  UNL d   1       2.921   3.055   1.114  0.00  0.00     0.020 A 
ATOM      3  C2  UNL d   1       2.201   1.888   1.378  0.00  0.00     0.034 A 
ATOM      4  C3  UNL d   1       2.053   0.912   0.387  0.00  0.00     0.017 A 
ATOM      5  C4  UNL d   1       2.630   1.108  -0.873  0.00  0.00     0.017 A 
ATOM      6  C5  UNL d   1       3.350   2.279  -1.133  0.00  0.00     0.034 A 
ATOM      7 Cl   UNL d   1       2.490  -0.051  -2.148  0.00  0.00    -0.070 Cl
ATOM      8 Cl1  UNL d   1       1.150  -0.507   0.784  0.00  0.00    -0.070 Cl
ENDROOT
TORSDOF 0
ENDMDL
