MODEL 1
REMARK minimizedAffinity -0.0302143451
REMARK minimizedRMSD -1
REMARK  0 active torsions:
REMARK  status: ('A' for Active; 'I' for Inactive)
ROOT
ATOM      1  C   UNL d   1       3.346  -0.727  -2.838  0.00  0.00     0.020 A 
ATOM      2  C1  UNL d   1       2.313  -0.766  -3.774  0.00  0.00     0.020 A 
ATOM      3  C2  UNL d   1       1.007  -0.458  -3.386  0.00  0.00     0.034 A 
ATOM      4  C3  UNL d   1       0.731  -0.110  -2.058  0.00  0.00     0.017 A 
ATOM      5  C4  UNL d   1       1.769  -0.071  -1.120  0.00  0.00     0.017 A 
ATOM      6  C5  UNL d   1       3.074  -0.380  -1.514  0.00  0.00     0.034 A 
ATOM      7 Cl   UNL d   1       1.506   0.350   0.536  0.00  0.00    -0.070 Cl
ATOM      8 Cl1  UNL d   1      -0.906   0.259  -1.648  0.00  0.00    -0.070 Cl
ENDROOT
TORSDOF 0
ENDMDL
