MODEL 1
REMARK minimizedAffinity -0.920568824
REMARK minimizedRMSD -1
REMARK  0 active torsions:
REMARK  status: ('A' for Active; 'I' for Inactive)
ROOT
ATOM      1  C   UNL d   1       2.503   3.816   2.268  0.00  0.00     0.020 A 
ATOM      2  C1  UNL d   1       2.404   2.427   2.215  0.00  0.00     0.020 A 
ATOM      3  C2  UNL d   1       2.896   1.733   1.107  0.00  0.00     0.034 A 
ATOM      4  C3  UNL d   1       3.489   2.430   0.047  0.00  0.00     0.017 A 
ATOM      5  C4  UNL d   1       3.588   3.825   0.102  0.00  0.00     0.017 A 
ATOM      6  C5  UNL d   1       3.094   4.514   1.214  0.00  0.00     0.034 A 
ATOM      7 Cl   UNL d   1       4.307   4.753  -1.167  0.00  0.00    -0.070 Cl
ATOM      8 Cl1  UNL d   1       4.076   1.508  -1.291  0.00  0.00    -0.070 Cl
ENDROOT
TORSDOF 0
ENDMDL
