MODEL 1
REMARK minimizedAffinity -3.45967722
REMARK minimizedRMSD -1
REMARK  0 active torsions:
REMARK  status: ('A' for Active; 'I' for Inactive)
ROOT
ATOM      1  C   UNL d   1      -2.125  -0.995  -1.187  0.00  0.00     0.020 A 
ATOM      2  C1  UNL d   1      -2.100  -0.946   0.206  0.00  0.00     0.020 A 
ATOM      3  C2  UNL d   1      -0.910  -0.646   0.873  0.00  0.00     0.034 A 
ATOM      4  C3  UNL d   1       0.259  -0.393   0.147  0.00  0.00     0.017 A 
ATOM      5  C4  UNL d   1       0.233  -0.443  -1.251  0.00  0.00     0.017 A 
ATOM      6  C5  UNL d   1      -0.960  -0.743  -1.914  0.00  0.00     0.034 A 
ATOM      7 Cl   UNL d   1       1.636  -0.143  -2.215  0.00  0.00    -0.070 Cl
ATOM      8 Cl1  UNL d   1       1.695  -0.028   1.037  0.00  0.00    -0.070 Cl
ENDROOT
TORSDOF 0
ENDMDL
