MODEL 1
REMARK minimizedAffinity -1.99094391
REMARK minimizedRMSD -1
REMARK  0 active torsions:
REMARK  status: ('A' for Active; 'I' for Inactive)
ROOT
ATOM      1  C   UNL d   1      -1.970  -0.745  -1.293  0.00  0.00     0.020 A 
ATOM      2  C1  UNL d   1      -1.287   0.315  -1.888  0.00  0.00     0.020 A 
ATOM      3  C2  UNL d   1      -0.060   0.734  -1.368  0.00  0.00     0.034 A 
ATOM      4  C3  UNL d   1       0.487   0.092  -0.251  0.00  0.00     0.017 A 
ATOM      5  C4  UNL d   1      -0.199  -0.971   0.345  0.00  0.00     0.017 A 
ATOM      6  C5  UNL d   1      -1.427  -1.387  -0.179  0.00  0.00     0.034 A 
ATOM      7 Cl   UNL d   1       0.412  -1.812   1.726  0.00  0.00    -0.070 Cl
ATOM      8 Cl1  UNL d   1       2.008   0.663   0.338  0.00  0.00    -0.070 Cl
ENDROOT
TORSDOF 0
ENDMDL
