MODEL 1
REMARK minimizedAffinity -4.6652565
REMARK minimizedRMSD -1
REMARK  0 active torsions:
REMARK  status: ('A' for Active; 'I' for Inactive)
ROOT
ATOM      1  C   UNL d   1       2.572   3.296   0.165  0.00  0.00     0.020 A 
ATOM      2  C1  UNL d   1       3.328   3.243  -1.006  0.00  0.00     0.020 A 
ATOM      3  C2  UNL d   1       3.413   2.050  -1.728  0.00  0.00     0.034 A 
ATOM      4  C3  UNL d   1       2.742   0.907  -1.280  0.00  0.00     0.017 A 
ATOM      5  C4  UNL d   1       1.984   0.962  -0.105  0.00  0.00     0.017 A 
ATOM      6  C5  UNL d   1       1.902   2.158   0.614  0.00  0.00     0.034 A 
ATOM      7 Cl   UNL d   1       1.127  -0.408   0.510  0.00  0.00    -0.070 Cl
ATOM      8 Cl1  UNL d   1       2.891  -0.533  -2.223  0.00  0.00    -0.070 Cl
ENDROOT
TORSDOF 0
ENDMDL
