MODEL 1
REMARK minimizedAffinity -4.66424274
REMARK minimizedRMSD -1
REMARK  0 active torsions:
REMARK  status: ('A' for Active; 'I' for Inactive)
ROOT
ATOM      1  C   UNL d   1      -2.509  -0.655   0.436  0.00  0.00     0.020 A 
ATOM      2  C1  UNL d   1      -2.723  -1.095  -0.870  0.00  0.00     0.020 A 
ATOM      3  C2  UNL d   1      -1.726  -0.930  -1.833  0.00  0.00     0.034 A 
ATOM      4  C3  UNL d   1      -0.511  -0.324  -1.493  0.00  0.00     0.017 A 
ATOM      5  C4  UNL d   1      -0.297   0.117  -0.182  0.00  0.00     0.017 A 
ATOM      6  C5  UNL d   1      -1.299  -0.051   0.779  0.00  0.00     0.034 A 
ATOM      7 Cl   UNL d   1       1.175   0.874   0.313  0.00  0.00    -0.070 Cl
ATOM      8 Cl1  UNL d   1       0.677  -0.153  -2.736  0.00  0.00    -0.070 Cl
ENDROOT
TORSDOF 0
ENDMDL
