MODEL 1
REMARK minimizedAffinity 0.290931374
REMARK minimizedRMSD -1
REMARK  1 active torsions:
REMARK  status: ('A' for Active; 'I' for Inactive)
REMARK    1  A    between atoms: C1_2  and  C2_3 
ROOT
ATOM      1  C2  UNL d   1      -1.441   3.534  -5.990  0.00  0.00    -0.073 A 
ATOM      2  C3  UNL d   1      -1.519   4.932  -6.000  0.00  0.00    -0.002 A 
ATOM      3  C4  UNL d   1      -0.355   5.702  -5.999  0.00  0.00     0.004 A 
ATOM      4  C5  UNL d   1       0.896   5.085  -5.995  0.00  0.00    -0.004 A 
ATOM      5  C6  UNL d   1       0.994   3.689  -5.997  0.00  0.00    -0.075 A 
ATOM      6  C7  UNL d   1       2.331   3.010  -5.991  0.00  0.00     0.076 C 
ATOM      7  C8  UNL d   1      -0.179   2.923  -5.996  0.00  0.00     0.001 A 
ENDROOT
BRANCH   1   8
ATOM      8  C1  UNL d   1      -2.695   2.698  -5.998  0.00  0.00     0.053 C 
ATOM      9  C   UNL d   1      -3.950   3.552  -5.920  0.00  0.00     0.018 C 
ENDBRANCH   1   8
TORSDOF 1
ENDMDL
