MODEL 1
REMARK minimizedAffinity -1.50972855
REMARK minimizedRMSD -1
REMARK  1 active torsions:
REMARK  status: ('A' for Active; 'I' for Inactive)
REMARK    1  A    between atoms: C1_2  and  C2_3 
ROOT
ATOM      1  C2  UNL d   1       1.488   3.958  -5.999  0.00  0.00    -0.073 A 
ATOM      2  C3  UNL d   1       1.417   5.355  -5.999  0.00  0.00    -0.002 A 
ATOM      3  C4  UNL d   1       0.179   5.998  -5.992  0.00  0.00     0.004 A 
ATOM      4  C5  UNL d   1      -0.999   5.252  -5.979  0.00  0.00    -0.004 A 
ATOM      5  C6  UNL d   1      -0.949   3.854  -5.967  0.00  0.00    -0.075 A 
ATOM      6  C7  UNL d   1      -2.208   3.037  -5.956  0.00  0.00     0.076 C 
ATOM      7  C8  UNL d   1       0.298   3.216  -5.977  0.00  0.00     0.001 A 
ENDROOT
BRANCH   1   8
ATOM      8  C1  UNL d   1       2.823   3.259  -6.000  0.00  0.00     0.053 C 
ATOM      9  C   UNL d   1       3.982   4.243  -5.989  0.00  0.00     0.018 C 
ENDBRANCH   1   8
TORSDOF 1
ENDMDL
