MODEL 1
REMARK minimizedAffinity 7.01024103
REMARK minimizedRMSD -1
REMARK  1 active torsions:
REMARK  status: ('A' for Active; 'I' for Inactive)
REMARK    1  A    between atoms: C1_2  and  C2_3 
ROOT
ATOM      1  C2  UNL d   1      -1.341  -5.085  -2.190  0.00  0.00    -0.073 A 
ATOM      2  C3  UNL d   1      -1.370  -4.785  -0.823  0.00  0.00    -0.002 A 
ATOM      3  C4  UNL d   1      -2.567  -4.867  -0.109  0.00  0.00     0.004 A 
ATOM      4  C5  UNL d   1      -3.742  -5.255  -0.751  0.00  0.00    -0.004 A 
ATOM      5  C6  UNL d   1      -3.731  -5.570  -2.114  0.00  0.00    -0.075 A 
ATOM      6  C7  UNL d   1      -4.987  -5.988  -2.820  0.00  0.00     0.076 C 
ATOM      7  C8  UNL d   1      -2.526  -5.483  -2.824  0.00  0.00     0.001 A 
ENDROOT
BRANCH   1   8
ATOM      8  C1  UNL d   1      -0.050  -5.004  -2.963  0.00  0.00     0.053 C 
ATOM      9  C   UNL d   1      -0.014  -5.995  -4.116  0.00  0.00     0.018 C 
ENDBRANCH   1   8
TORSDOF 1
ENDMDL
