MODEL 1
REMARK minimizedAffinity 2.21716666
REMARK minimizedRMSD -1
REMARK  1 active torsions:
REMARK  status: ('A' for Active; 'I' for Inactive)
REMARK    1  A    between atoms: C1_2  and  C2_3 
ROOT
ATOM      1  C2  UNL d   1       0.911   3.637  -3.611  0.00  0.00    -0.073 A 
ATOM      2  C3  UNL d   1       1.255   3.033  -4.826  0.00  0.00    -0.002 A 
ATOM      3  C4  UNL d   1       0.586   3.381  -6.000  0.00  0.00     0.004 A 
ATOM      4  C5  UNL d   1      -0.428   4.339  -5.973  0.00  0.00    -0.004 A 
ATOM      5  C6  UNL d   1      -0.778   4.962  -4.771  0.00  0.00    -0.075 A 
ATOM      6  C7  UNL d   1      -1.867   5.993  -4.724  0.00  0.00     0.076 C 
ATOM      7  C8  UNL d   1      -0.103   4.605  -3.595  0.00  0.00     0.001 A 
ENDROOT
BRANCH   1   8
ATOM      8  C1  UNL d   1       1.635   3.269  -2.342  0.00  0.00     0.053 C 
ATOM      9  C   UNL d   1       2.989   2.637  -2.621  0.00  0.00     0.018 C 
ENDBRANCH   1   8
TORSDOF 1
ENDMDL
