MODEL 1
REMARK minimizedAffinity 1.28062677
REMARK minimizedRMSD -1
REMARK  1 active torsions:
REMARK  status: ('A' for Active; 'I' for Inactive)
REMARK    1  A    between atoms: C1_2  and  C2_3 
ROOT
ATOM      1  C2  UNL d   1       1.014   3.246  -5.999  0.00  0.00    -0.073 A 
ATOM      2  C3  UNL d   1       1.168   4.636  -5.978  0.00  0.00    -0.002 A 
ATOM      3  C4  UNL d   1       0.049   5.470  -5.973  0.00  0.00     0.004 A 
ATOM      4  C5  UNL d   1      -1.234   4.923  -5.981  0.00  0.00    -0.004 A 
ATOM      5  C6  UNL d   1      -1.409   3.535  -5.989  0.00  0.00    -0.075 A 
ATOM      6  C7  UNL d   1      -2.782   2.930  -6.000  0.00  0.00     0.076 C 
ATOM      7  C8  UNL d   1      -0.280   2.705  -5.997  0.00  0.00     0.001 A 
ENDROOT
BRANCH   1   8
ATOM      8  C1  UNL d   1       2.219   2.342  -5.998  0.00  0.00     0.053 C 
ATOM      9  C   UNL d   1       3.521   3.127  -6.000  0.00  0.00     0.018 C 
ENDBRANCH   1   8
TORSDOF 1
ENDMDL
