MODEL 1
REMARK minimizedAffinity 0.366432875
REMARK minimizedRMSD -1
REMARK  1 active torsions:
REMARK  status: ('A' for Active; 'I' for Inactive)
REMARK    1  A    between atoms: C1_2  and  C2_3 
ROOT
ATOM      1  C2  UNL d   1       0.074   3.845  -5.879  0.00  0.00    -0.073 A 
ATOM      2  C3  UNL d   1      -0.480   2.562  -5.947  0.00  0.00    -0.002 A 
ATOM      3  C4  UNL d   1      -1.864   2.393  -5.991  0.00  0.00     0.004 A 
ATOM      4  C5  UNL d   1      -2.708   3.504  -5.974  0.00  0.00    -0.004 A 
ATOM      5  C6  UNL d   1      -2.173   4.795  -5.918  0.00  0.00    -0.075 A 
ATOM      6  C7  UNL d   1      -3.067   6.000  -5.897  0.00  0.00     0.076 C 
ATOM      7  C8  UNL d   1      -0.782   4.956  -5.871  0.00  0.00     0.001 A 
ENDROOT
BRANCH   1   8
ATOM      8  C1  UNL d   1       1.569   4.033  -5.837  0.00  0.00     0.053 C 
ATOM      9  C   UNL d   1       2.313   2.717  -5.997  0.00  0.00     0.018 C 
ENDBRANCH   1   8
TORSDOF 1
ENDMDL
