MODEL 1
REMARK minimizedAffinity 7.60200739
REMARK minimizedRMSD -1
REMARK  1 active torsions:
REMARK  status: ('A' for Active; 'I' for Inactive)
REMARK    1  A    between atoms: C1_2  and  C2_3 
ROOT
ATOM      1  C2  UNL d   1      -0.290  -2.202  -1.195  0.00  0.00    -0.073 A 
ATOM      2  C3  UNL d   1       1.097  -2.323  -1.051  0.00  0.00    -0.002 A 
ATOM      3  C4  UNL d   1       1.796  -1.459  -0.206  0.00  0.00     0.004 A 
ATOM      4  C5  UNL d   1       1.116  -0.472   0.507  0.00  0.00    -0.004 A 
ATOM      5  C6  UNL d   1      -0.272  -0.344   0.385  0.00  0.00    -0.075 A 
ATOM      6  C7  UNL d   1      -1.018   0.714   1.144  0.00  0.00     0.076 C 
ATOM      7  C8  UNL d   1      -0.966  -1.213  -0.467  0.00  0.00     0.001 A 
ENDROOT
BRANCH   1   8
ATOM      8  C1  UNL d   1      -1.049  -3.136  -2.102  0.00  0.00     0.053 C 
ATOM      9  C   UNL d   1      -0.130  -3.862  -3.071  0.00  0.00     0.018 C 
ENDBRANCH   1   8
TORSDOF 1
ENDMDL
