MODEL 1
REMARK minimizedAffinity -1.80613756
REMARK minimizedRMSD -1
REMARK  1 active torsions:
REMARK  status: ('A' for Active; 'I' for Inactive)
REMARK    1  A    between atoms: C1_2  and  C2_3 
ROOT
ATOM      1  C2  UNL d   1      -1.718   4.600  -5.989  0.00  0.00    -0.073 A 
ATOM      2  C3  UNL d   1      -2.559   3.481  -5.990  0.00  0.00    -0.002 A 
ATOM      3  C4  UNL d   1      -2.019   2.194  -5.999  0.00  0.00     0.004 A 
ATOM      4  C5  UNL d   1      -0.636   2.013  -5.999  0.00  0.00    -0.004 A 
ATOM      5  C6  UNL d   1       0.220   3.119  -5.987  0.00  0.00    -0.075 A 
ATOM      6  C7  UNL d   1       1.710   2.942  -5.990  0.00  0.00     0.076 C 
ATOM      7  C8  UNL d   1      -0.329   4.408  -5.981  0.00  0.00     0.001 A 
ENDROOT
BRANCH   1   8
ATOM      8  C1  UNL d   1      -2.297   5.992  -5.974  0.00  0.00     0.053 C 
ATOM      9  C   UNL d   1      -3.815   5.977  -5.888  0.00  0.00     0.018 C 
ENDBRANCH   1   8
TORSDOF 1
ENDMDL
