MODEL 1
REMARK minimizedAffinity 0.0476574115
REMARK minimizedRMSD -1
REMARK  1 active torsions:
REMARK  status: ('A' for Active; 'I' for Inactive)
REMARK    1  A    between atoms: C1_2  and  C2_3 
ROOT
ATOM      1  C2  UNL d   1       0.019   1.966   0.181  0.00  0.00    -0.073 A 
ATOM      2  C3  UNL d   1       0.544   0.758   0.653  0.00  0.00    -0.002 A 
ATOM      3  C4  UNL d   1      -0.302  -0.226   1.166  0.00  0.00     0.004 A 
ATOM      4  C5  UNL d   1      -1.680  -0.016   1.207  0.00  0.00    -0.004 A 
ATOM      5  C6  UNL d   1      -2.225   1.181   0.729  0.00  0.00    -0.075 A 
ATOM      6  C7  UNL d   1      -3.706   1.424   0.768  0.00  0.00     0.076 C 
ATOM      7  C8  UNL d   1      -1.369   2.165   0.218  0.00  0.00     0.001 A 
ENDROOT
BRANCH   1   8
ATOM      8  C1  UNL d   1       0.928   3.029  -0.380  0.00  0.00     0.053 C 
ATOM      9  C   UNL d   1       1.494   2.636  -1.736  0.00  0.00     0.018 C 
ENDBRANCH   1   8
TORSDOF 1
ENDMDL
