MODEL 1
REMARK minimizedAffinity 6.37323284
REMARK minimizedRMSD -1
REMARK  1 active torsions:
REMARK  status: ('A' for Active; 'I' for Inactive)
REMARK    1  A    between atoms: C1_2  and  C2_3 
ROOT
ATOM      1  C2  UNL d   1       0.780   3.213  -3.821  0.00  0.00    -0.073 A 
ATOM      2  C3  UNL d   1       1.640   3.320  -4.920  0.00  0.00    -0.002 A 
ATOM      3  C4  UNL d   1       1.307   4.142  -5.998  0.00  0.00     0.004 A 
ATOM      4  C5  UNL d   1       0.117   4.869  -5.985  0.00  0.00    -0.004 A 
ATOM      5  C6  UNL d   1      -0.749   4.785  -4.890  0.00  0.00    -0.075 A 
ATOM      6  C7  UNL d   1      -2.034   5.559  -4.861  0.00  0.00     0.076 C 
ATOM      7  C8  UNL d   1      -0.409   3.956  -3.812  0.00  0.00     0.001 A 
ENDROOT
BRANCH   1   8
ATOM      8  C1  UNL d   1       1.139   2.332  -2.652  0.00  0.00     0.053 C 
ATOM      9  C   UNL d   1       2.422   1.554  -2.897  0.00  0.00     0.018 C 
ENDBRANCH   1   8
TORSDOF 1
ENDMDL
