MODEL 1
REMARK minimizedAffinity -1.52802408
REMARK minimizedRMSD -1
REMARK  1 active torsions:
REMARK  status: ('A' for Active; 'I' for Inactive)
REMARK    1  A    between atoms: C1_2  and  C2_3 
ROOT
ATOM      1  C2  UNL d   1      -0.388   3.191  -5.982  0.00  0.00    -0.073 A 
ATOM      2  C3  UNL d   1      -0.571   4.578  -5.989  0.00  0.00    -0.002 A 
ATOM      3  C4  UNL d   1       0.532   5.434  -5.990  0.00  0.00     0.004 A 
ATOM      4  C5  UNL d   1       1.825   4.913  -5.991  0.00  0.00    -0.004 A 
ATOM      5  C6  UNL d   1       2.028   3.529  -5.997  0.00  0.00    -0.075 A 
ATOM      6  C7  UNL d   1       3.413   2.952  -5.996  0.00  0.00     0.076 C 
ATOM      7  C8  UNL d   1       0.916   2.676  -5.993  0.00  0.00     0.001 A 
ENDROOT
BRANCH   1   8
ATOM      8  C1  UNL d   1      -1.575   2.263  -5.988  0.00  0.00     0.053 C 
ATOM      9  C   UNL d   1      -2.893   3.022  -5.999  0.00  0.00     0.018 C 
ENDBRANCH   1   8
TORSDOF 1
ENDMDL
