MODEL 1
REMARK minimizedAffinity -1.04111373
REMARK minimizedRMSD -1
REMARK  1 active torsions:
REMARK  status: ('A' for Active; 'I' for Inactive)
REMARK    1  A    between atoms: C1_2  and  C2_3 
ROOT
ATOM      1  C2  UNL d   1       0.357   2.653  -5.999  0.00  0.00    -0.073 A 
ATOM      2  C3  UNL d   1       0.793   3.983  -5.983  0.00  0.00    -0.002 A 
ATOM      3  C4  UNL d   1      -0.132   5.027  -5.981  0.00  0.00     0.004 A 
ATOM      4  C5  UNL d   1      -1.500   4.754  -5.987  0.00  0.00    -0.004 A 
ATOM      5  C6  UNL d   1      -1.955   3.432  -5.990  0.00  0.00    -0.075 A 
ATOM      6  C7  UNL d   1      -3.423   3.121  -5.999  0.00  0.00     0.076 C 
ATOM      7  C8  UNL d   1      -1.020   2.388  -5.995  0.00  0.00     0.001 A 
ENDROOT
BRANCH   1   8
ATOM      8  C1  UNL d   1       1.352   1.521  -5.995  0.00  0.00     0.053 C 
ATOM      9  C   UNL d   1       2.787   2.024  -5.990  0.00  0.00     0.018 C 
ENDBRANCH   1   8
TORSDOF 1
ENDMDL
