MODEL 1
REMARK minimizedAffinity 1.79863226
REMARK minimizedRMSD -1
REMARK  0 active torsions:
REMARK  status: ('A' for Active; 'I' for Inactive)
ROOT
ATOM      1  C   UNL d   1       1.203   2.852  -1.823  0.00  0.00     0.172 C 
ATOM      2  N   UNL d   1       1.234   1.694  -0.961  0.00  0.00    -0.070 N 
ATOM      3  C1  UNL d   1       1.249   0.389  -1.376  0.00  0.00    -0.004 A 
ATOM      4  C2  UNL d   1       1.278  -0.410  -0.254  0.00  0.00    -0.047 A 
ATOM      5  C3  UNL d   1       1.278   0.443   0.875  0.00  0.00    -0.047 A 
ATOM      6  C4  UNL d   1       1.251   1.741   0.408  0.00  0.00    -0.004 A 
ENDROOT
TORSDOF 0
ENDMDL
