MODEL 1
REMARK minimizedAffinity 2.43421412
REMARK minimizedRMSD -1
REMARK  0 active torsions:
REMARK  status: ('A' for Active; 'I' for Inactive)
ROOT
ATOM      1  C   UNL d   1      -3.029   3.096   5.387  0.00  0.00     0.172 C 
ATOM      2  N   UNL d   1      -3.492   2.525   4.144  0.00  0.00    -0.070 N 
ATOM      3  C1  UNL d   1      -4.764   2.618   3.647  0.00  0.00    -0.004 A 
ATOM      4  C2  UNL d   1      -4.798   1.945   2.445  0.00  0.00    -0.047 A 
ATOM      5  C3  UNL d   1      -3.501   1.429   2.211  0.00  0.00    -0.047 A 
ATOM      6  C4  UNL d   1      -2.713   1.803   3.279  0.00  0.00    -0.004 A 
ENDROOT
TORSDOF 0
ENDMDL
