MODEL 1
REMARK minimizedAffinity -1.9831425
REMARK minimizedRMSD -1
REMARK  0 active torsions:
REMARK  status: ('A' for Active; 'I' for Inactive)
ROOT
ATOM      1  C   UNL d   1       1.134   3.560  -1.810  0.00  0.00     0.172 C 
ATOM      2  N   UNL d   1       1.114   2.339  -1.038  0.00  0.00    -0.070 N 
ATOM      3  C1  UNL d   1       0.707   2.224   0.264  0.00  0.00    -0.004 A 
ATOM      4  C2  UNL d   1       0.838   0.903   0.633  0.00  0.00    -0.047 A 
ATOM      5  C3  UNL d   1       1.343   0.199  -0.487  0.00  0.00    -0.047 A 
ATOM      6  C4  UNL d   1       1.504   1.113  -1.507  0.00  0.00    -0.004 A 
ENDROOT
TORSDOF 0
ENDMDL
