MODEL 1
REMARK minimizedAffinity -1.1065824
REMARK minimizedRMSD -1
REMARK  0 active torsions:
REMARK  status: ('A' for Active; 'I' for Inactive)
ROOT
ATOM      1  C   UNL d   1       1.062  -2.258  -1.093  0.00  0.00     0.172 C 
ATOM      2  N   UNL d   1       1.029  -0.870  -0.693  0.00  0.00    -0.070 N 
ATOM      3  C1  UNL d   1       1.495  -0.370   0.493  0.00  0.00    -0.004 A 
ATOM      4  C2  UNL d   1       1.282   0.992   0.489  0.00  0.00    -0.047 A 
ATOM      5  C3  UNL d   1       0.667   1.321  -0.742  0.00  0.00    -0.047 A 
ATOM      6  C4  UNL d   1       0.522   0.149  -1.455  0.00  0.00    -0.004 A 
ENDROOT
TORSDOF 0
ENDMDL
