MODEL 1
REMARK minimizedAffinity 2.47882628
REMARK minimizedRMSD -1
REMARK  0 active torsions:
REMARK  status: ('A' for Active; 'I' for Inactive)
ROOT
ATOM      1  C   UNL d   1       1.000  -0.260  -2.054  0.00  0.00     0.172 C 
ATOM      2  N   UNL d   1       0.811   1.157  -1.853  0.00  0.00    -0.070 N 
ATOM      3  C1  UNL d   1       1.143   1.853  -0.721  0.00  0.00    -0.004 A 
ATOM      4  C2  UNL d   1       0.806   3.174  -0.925  0.00  0.00    -0.047 A 
ATOM      5  C3  UNL d   1       0.252   3.275  -2.223  0.00  0.00    -0.047 A 
ATOM      6  C4  UNL d   1       0.267   2.011  -2.775  0.00  0.00    -0.004 A 
ENDROOT
TORSDOF 0
ENDMDL
