MODEL 1
REMARK minimizedAffinity -2.61577058
REMARK minimizedRMSD -1
REMARK  0 active torsions:
REMARK  status: ('A' for Active; 'I' for Inactive)
ROOT
ATOM      1  C   UNL d   1       1.489   3.758  -1.426  0.00  0.00     0.172 C 
ATOM      2  N   UNL d   1       1.275   2.503  -0.745  0.00  0.00    -0.070 N 
ATOM      3  C1  UNL d   1       1.252   1.268  -1.336  0.00  0.00    -0.004 A 
ATOM      4  C2  UNL d   1       1.021   0.333  -0.351  0.00  0.00    -0.047 A 
ATOM      5  C3  UNL d   1       0.900   1.030   0.875  0.00  0.00    -0.047 A 
ATOM      6  C4  UNL d   1       1.061   2.372   0.602  0.00  0.00    -0.004 A 
ENDROOT
TORSDOF 0
ENDMDL
