MODEL 1
REMARK minimizedAffinity -2.62514639
REMARK minimizedRMSD -1
REMARK  0 active torsions:
REMARK  status: ('A' for Active; 'I' for Inactive)
ROOT
ATOM      1  C   UNL d   1       1.214  -1.011  -0.634  0.00  0.00     0.172 C 
ATOM      2  N   UNL d   1       1.010   0.353  -0.206  0.00  0.00    -0.070 N 
ATOM      3  C1  UNL d   1       0.617   1.391  -1.008  0.00  0.00    -0.004 A 
ATOM      4  C2  UNL d   1       0.537   2.522  -0.225  0.00  0.00    -0.047 A 
ATOM      5  C3  UNL d   1       0.895   2.151   1.093  0.00  0.00    -0.047 A 
ATOM      6  C4  UNL d   1       1.183   0.803   1.076  0.00  0.00    -0.004 A 
ENDROOT
TORSDOF 0
ENDMDL
