MODEL 1
REMARK minimizedAffinity -2.91256428
REMARK minimizedRMSD -1
REMARK  0 active torsions:
REMARK  status: ('A' for Active; 'I' for Inactive)
ROOT
ATOM      1  C   UNL d   1      -3.863   1.143   2.221  0.00  0.00     0.172 C 
ATOM      2  N   UNL d   1      -3.269   1.649   3.436  0.00  0.00    -0.070 N 
ATOM      3  C1  UNL d   1      -1.968   1.469   3.824  0.00  0.00    -0.004 A 
ATOM      4  C2  UNL d   1      -1.798   2.103   5.036  0.00  0.00    -0.047 A 
ATOM      5  C3  UNL d   1      -3.039   2.683   5.389  0.00  0.00    -0.047 A 
ATOM      6  C4  UNL d   1      -3.932   2.387   4.381  0.00  0.00    -0.004 A 
ENDROOT
TORSDOF 0
ENDMDL
