MODEL 1
REMARK minimizedAffinity -2.16158175
REMARK minimizedRMSD -1
REMARK  0 active torsions:
REMARK  status: ('A' for Active; 'I' for Inactive)
ROOT
ATOM      1  C   UNL d   1       2.315  -1.165  -0.455  0.00  0.00     0.172 C 
ATOM      2  N   UNL d   1       1.733   0.095  -0.055  0.00  0.00    -0.070 N 
ATOM      3  C1  UNL d   1       1.922   0.715   1.151  0.00  0.00    -0.004 A 
ATOM      4  C2  UNL d   1       1.200   1.888   1.140  0.00  0.00    -0.047 A 
ATOM      5  C3  UNL d   1       0.553   1.976  -0.115  0.00  0.00    -0.047 A 
ATOM      6  C4  UNL d   1       0.900   0.853  -0.836  0.00  0.00    -0.004 A 
ENDROOT
TORSDOF 0
ENDMDL
