MODEL 1
REMARK minimizedAffinity -3.40090823
REMARK minimizedRMSD -1
REMARK  0 active torsions:
REMARK  status: ('A' for Active; 'I' for Inactive)
ROOT
ATOM      1  C   UNL d   1       0.735   2.273   0.745  0.00  0.00     0.172 C 
ATOM      2  N   UNL d   1       0.890   1.716  -0.578  0.00  0.00    -0.070 N 
ATOM      3  C1  UNL d   1       0.879   0.382  -0.889  0.00  0.00    -0.004 A 
ATOM      4  C2  UNL d   1       1.055   0.265  -2.251  0.00  0.00    -0.047 A 
ATOM      5  C3  UNL d   1       1.178   1.573  -2.776  0.00  0.00    -0.047 A 
ATOM      6  C4  UNL d   1       1.072   2.452  -1.719  0.00  0.00    -0.004 A 
ENDROOT
TORSDOF 0
ENDMDL
