MODEL 1
REMARK minimizedAffinity -2.76470995
REMARK minimizedRMSD -1
REMARK  0 active torsions:
REMARK  status: ('A' for Active; 'I' for Inactive)
ROOT
ATOM      1  C   UNL d   1       0.853   2.215   0.144  0.00  0.00     0.172 C 
ATOM      2  N   UNL d   1       0.868   1.360  -1.020  0.00  0.00    -0.070 N 
ATOM      3  C1  UNL d   1      -0.174   1.176  -1.890  0.00  0.00    -0.004 A 
ATOM      4  C2  UNL d   1       0.239   0.290  -2.861  0.00  0.00    -0.047 A 
ATOM      5  C3  UNL d   1       1.574  -0.073  -2.565  0.00  0.00    -0.047 A 
ATOM      6  C4  UNL d   1       1.939   0.604  -1.420  0.00  0.00    -0.004 A 
ENDROOT
TORSDOF 0
ENDMDL
