MODEL 1
REMARK minimizedAffinity -1.82887828
REMARK minimizedRMSD -1
REMARK  0 active torsions:
REMARK  status: ('A' for Active; 'I' for Inactive)
ROOT
ATOM      1  C   UNL d   1       0.992  -1.123  -0.621  0.00  0.00     0.172 C 
ATOM      2  N   UNL d   1       1.000   0.301  -0.380  0.00  0.00    -0.070 N 
ATOM      3  C1  UNL d   1       1.090   1.273  -1.340  0.00  0.00    -0.004 A 
ATOM      4  C2  UNL d   1       1.064   2.496  -0.705  0.00  0.00    -0.047 A 
ATOM      5  C3  UNL d   1       0.956   2.250   0.684  0.00  0.00    -0.047 A 
ATOM      6  C4  UNL d   1       0.919   0.883   0.858  0.00  0.00    -0.004 A 
ENDROOT
TORSDOF 0
ENDMDL
