MODEL 1
REMARK minimizedAffinity -3.72471905
REMARK minimizedRMSD -1
REMARK  0 active torsions:
REMARK  status: ('A' for Active; 'I' for Inactive)
ROOT
ATOM      1  C   UNL d   1       0.629   3.353  -1.579  0.00  0.00     0.172 C 
ATOM      2  N   UNL d   1       0.767   2.035  -1.004  0.00  0.00    -0.070 N 
ATOM      3  C1  UNL d   1       1.263   0.932  -1.645  0.00  0.00    -0.004 A 
ATOM      4  C2  UNL d   1       1.228  -0.123  -0.758  0.00  0.00    -0.047 A 
ATOM      5  C3  UNL d   1       0.692   0.364   0.458  0.00  0.00    -0.047 A 
ATOM      6  C4  UNL d   1       0.415   1.703   0.278  0.00  0.00    -0.004 A 
ENDROOT
TORSDOF 0
ENDMDL
