MODEL 1
REMARK minimizedAffinity -3.01256299
REMARK minimizedRMSD -1
REMARK  0 active torsions:
REMARK  status: ('A' for Active; 'I' for Inactive)
ROOT
ATOM      1  C   UNL d   1       1.364   3.615  -1.195  0.00  0.00     0.172 C 
ATOM      2  N   UNL d   1       1.156   2.226  -0.860  0.00  0.00    -0.070 N 
ATOM      3  C1  UNL d   1       0.928   1.734   0.397  0.00  0.00    -0.004 A 
ATOM      4  C2  UNL d   1       0.782   0.367   0.295  0.00  0.00    -0.047 A 
ATOM      5  C3  UNL d   1       0.927   0.026  -1.070  0.00  0.00    -0.047 A 
ATOM      6  C4  UNL d   1       1.158   1.196  -1.763  0.00  0.00    -0.004 A 
ENDROOT
TORSDOF 0
ENDMDL
