MODEL 1
REMARK minimizedAffinity 1.9798795
REMARK minimizedRMSD -1
REMARK  0 active torsions:
REMARK  status: ('A' for Active; 'I' for Inactive)
ROOT
ATOM      1  C   UNL d   1       1.186   2.744  -2.092  0.00  0.00     0.172 C 
ATOM      2  N   UNL d   1       1.103   1.695  -1.104  0.00  0.00    -0.070 N 
ATOM      3  C1  UNL d   1       1.497   1.798   0.204  0.00  0.00    -0.004 A 
ATOM      4  C2  UNL d   1       1.255   0.586   0.814  0.00  0.00    -0.047 A 
ATOM      5  C3  UNL d   1       0.697  -0.275  -0.161  0.00  0.00    -0.047 A 
ATOM      6  C4  UNL d   1       0.615   0.437  -1.339  0.00  0.00    -0.004 A 
ENDROOT
TORSDOF 0
ENDMDL
