MODEL 1
REMARK minimizedAffinity -1.65992057
REMARK minimizedRMSD -1
REMARK  0 active torsions:
REMARK  status: ('A' for Active; 'I' for Inactive)
ROOT
ATOM      1  C   UNL d   1       1.056   1.259  -1.128  0.00  0.00     0.172 C 
ATOM      2  N   UNL d   1       1.097  -0.158  -0.850  0.00  0.00    -0.070 N 
ATOM      3  C1  UNL d   1       0.523  -1.138  -1.615  0.00  0.00    -0.004 A 
ATOM      4  C2  UNL d   1       0.788  -2.350  -1.015  0.00  0.00    -0.047 A 
ATOM      5  C3  UNL d   1       1.546  -2.090   0.151  0.00  0.00    -0.047 A 
ATOM      6  C4  UNL d   1       1.723  -0.724   0.229  0.00  0.00    -0.004 A 
ENDROOT
TORSDOF 0
ENDMDL
