MODEL 1
REMARK minimizedAffinity -0.646063507
REMARK minimizedRMSD -1
REMARK  0 active torsions:
REMARK  status: ('A' for Active; 'I' for Inactive)
ROOT
ATOM      1  C   UNL d   1       1.187   2.679  -2.266  0.00  0.00     0.172 C 
ATOM      2  N   UNL d   1       1.008   1.653  -1.266  0.00  0.00    -0.070 N 
ATOM      3  C1  UNL d   1       0.564   1.854   0.014  0.00  0.00    -0.004 A 
ATOM      4  C2  UNL d   1       0.531   0.631   0.647  0.00  0.00    -0.047 A 
ATOM      5  C3  UNL d   1       0.971  -0.340  -0.285  0.00  0.00    -0.047 A 
ATOM      6  C4  UNL d   1       1.259   0.321  -1.461  0.00  0.00    -0.004 A 
ENDROOT
TORSDOF 0
ENDMDL
