MODEL 1
REMARK minimizedAffinity -2.02066016
REMARK minimizedRMSD -1
REMARK  1 active torsions:
REMARK  status: ('A' for Active; 'I' for Inactive)
REMARK    1  A    between atoms: C3_4  and  O_7 
ROOT
ATOM      1  C   UNL d   1      -0.777  -0.130  -1.512  0.00  0.00    -0.033 A 
ATOM      2  C1  UNL d   1       0.327  -0.595  -2.230  0.00  0.00     0.039 A 
ATOM      3  C2  UNL d   1       1.527  -0.865  -1.570  0.00  0.00    -0.080 A 
ATOM      4  C3  UNL d   1       1.610  -0.668  -0.195  0.00  0.00     0.150 A 
ATOM      5  C4  UNL d   1       0.514  -0.209   0.527  0.00  0.00    -0.007 A 
ATOM      6  C5  UNL d   1      -0.684   0.061  -0.134  0.00  0.00     0.039 A 
ENDROOT
BRANCH   4   7
ATOM      7  O   UNL d   1       2.762  -0.913   0.492  0.00  0.00    -0.526 OA
ATOM      8  H5  UNL d   1       3.443  -1.197  -0.141  0.00  0.00     0.418 HD
ENDBRANCH   4   7
TORSDOF 1
ENDMDL
