MODEL 1
REMARK minimizedAffinity -4.90042734
REMARK minimizedRMSD -1
REMARK  1 active torsions:
REMARK  status: ('A' for Active; 'I' for Inactive)
REMARK    1  A    between atoms: C3_4  and  O_7 
ROOT
ATOM      1  C   UNL d   1       0.990  -0.877   2.778  0.00  0.00    -0.033 A 
ATOM      2  C1  UNL d   1      -0.393  -0.758   2.630  0.00  0.00     0.039 A 
ATOM      3  C2  UNL d   1      -0.943  -0.502   1.372  0.00  0.00    -0.080 A 
ATOM      4  C3  UNL d   1      -0.100  -0.367   0.272  0.00  0.00     0.150 A 
ATOM      5  C4  UNL d   1       1.278  -0.488   0.412  0.00  0.00    -0.007 A 
ATOM      6  C5  UNL d   1       1.826  -0.744   1.668  0.00  0.00     0.039 A 
ENDROOT
BRANCH   4   7
ATOM      7  O   UNL d   1      -0.590  -0.111  -0.974  0.00  0.00    -0.526 OA
ATOM      8  H5  UNL d   1      -1.556  -0.025  -0.913  0.00  0.00     0.418 HD
ENDBRANCH   4   7
TORSDOF 1
ENDMDL
