MODEL 1
REMARK minimizedAffinity -4.08586168
REMARK minimizedRMSD -1
REMARK  1 active torsions:
REMARK  status: ('A' for Active; 'I' for Inactive)
REMARK    1  A    between atoms: C3_4  and  O_7 
ROOT
ATOM      1  C   UNL d   1       0.062  -0.056  -0.511  0.00  0.00    -0.033 A 
ATOM      2  C1  UNL d   1      -0.863  -0.002   0.534  0.00  0.00     0.039 A 
ATOM      3  C2  UNL d   1      -0.440  -0.177   1.853  0.00  0.00    -0.080 A 
ATOM      4  C3  UNL d   1       0.909  -0.405   2.113  0.00  0.00     0.150 A 
ATOM      5  C4  UNL d   1       1.836  -0.457   1.078  0.00  0.00    -0.007 A 
ATOM      6  C5  UNL d   1       1.411  -0.282  -0.239  0.00  0.00     0.039 A 
ENDROOT
BRANCH   4   7
ATOM      7  O   UNL d   1       1.368  -0.587   3.384  0.00  0.00    -0.526 OA
ATOM      8  H5  UNL d   1       0.612  -0.553   3.993  0.00  0.00     0.418 HD
ENDBRANCH   4   7
TORSDOF 1
ENDMDL
