MODEL 1
REMARK minimizedAffinity -1.38519323
REMARK minimizedRMSD -1
REMARK  1 active torsions:
REMARK  status: ('A' for Active; 'I' for Inactive)
REMARK    1  A    between atoms: C3_4  and  O_7 
ROOT
ATOM      1  C   UNL d   1      -0.116  -0.003  -1.106  0.00  0.00    -0.033 A 
ATOM      2  C1  UNL d   1       1.022  -0.736  -0.762  0.00  0.00     0.039 A 
ATOM      3  C2  UNL d   1       1.223  -1.138   0.559  0.00  0.00    -0.080 A 
ATOM      4  C3  UNL d   1       0.280  -0.802   1.527  0.00  0.00     0.150 A 
ATOM      5  C4  UNL d   1      -0.858  -0.076   1.191  0.00  0.00    -0.007 A 
ATOM      6  C5  UNL d   1      -1.057   0.325  -0.129  0.00  0.00     0.039 A 
ENDROOT
BRANCH   4   7
ATOM      7  O   UNL d   1       0.435  -1.168   2.831  0.00  0.00    -0.526 OA
ATOM      8  H5  UNL d   1       1.281  -1.639   2.919  0.00  0.00     0.418 HD
ENDBRANCH   4   7
TORSDOF 1
ENDMDL
