MODEL 1
REMARK minimizedAffinity -3.0206213
REMARK minimizedRMSD -1
REMARK  1 active torsions:
REMARK  status: ('A' for Active; 'I' for Inactive)
REMARK    1  A    between atoms: C3_4  and  O_7 
ROOT
ATOM      1  C   UNL d   1      -0.083   0.390  -0.692  0.00  0.00    -0.033 A 
ATOM      2  C1  UNL d   1      -1.101  -0.047   0.158  0.00  0.00     0.039 A 
ATOM      3  C2  UNL d   1      -0.784  -0.705   1.348  0.00  0.00    -0.080 A 
ATOM      4  C3  UNL d   1       0.552  -0.918   1.676  0.00  0.00     0.150 A 
ATOM      5  C4  UNL d   1       1.571  -0.481   0.836  0.00  0.00    -0.007 A 
ATOM      6  C5  UNL d   1       1.253   0.175  -0.352  0.00  0.00     0.039 A 
ENDROOT
BRANCH   4   7
ATOM      7  O   UNL d   1       0.910  -1.559   2.825  0.00  0.00    -0.526 OA
ATOM      8  H5  UNL d   1       0.101  -1.829   3.292  0.00  0.00     0.418 HD
ENDBRANCH   4   7
TORSDOF 1
ENDMDL
