MODEL 1
REMARK minimizedAffinity -4.81704998
REMARK minimizedRMSD -1
REMARK  1 active torsions:
REMARK  status: ('A' for Active; 'I' for Inactive)
REMARK    1  A    between atoms: C3_4  and  O_7 
ROOT
ATOM      1  C   UNL d   1       1.468  -0.969   2.840  0.00  0.00    -0.033 A 
ATOM      2  C1  UNL d   1       0.095  -0.720   2.809  0.00  0.00     0.039 A 
ATOM      3  C2  UNL d   1      -0.454   0.046   1.779  0.00  0.00    -0.080 A 
ATOM      4  C3  UNL d   1       0.380   0.557   0.788  0.00  0.00     0.150 A 
ATOM      5  C4  UNL d   1       1.748   0.309   0.811  0.00  0.00    -0.007 A 
ATOM      6  C5  UNL d   1       2.295  -0.456   1.840  0.00  0.00     0.039 A 
ENDROOT
BRANCH   4   7
ATOM      7  O   UNL d   1      -0.109   1.314  -0.235  0.00  0.00    -0.526 OA
ATOM      8  H5  UNL d   1      -1.066   1.426  -0.105  0.00  0.00     0.418 HD
ENDBRANCH   4   7
TORSDOF 1
ENDMDL
