MODEL 1
REMARK minimizedAffinity -2.46702194
REMARK minimizedRMSD -1
REMARK  1 active torsions:
REMARK  status: ('A' for Active; 'I' for Inactive)
REMARK    1  A    between atoms: C3_4  and  O_7 
ROOT
ATOM      1  C   UNL d   1       1.037   1.179  -2.419  0.00  0.00    -0.033 A 
ATOM      2  C1  UNL d   1      -0.148   0.686  -1.869  0.00  0.00     0.039 A 
ATOM      3  C2  UNL d   1      -1.333   1.414  -1.992  0.00  0.00    -0.080 A 
ATOM      4  C3  UNL d   1      -1.320   2.632  -2.666  0.00  0.00     0.150 A 
ATOM      5  C4  UNL d   1      -0.144   3.128  -3.219  0.00  0.00    -0.007 A 
ATOM      6  C5  UNL d   1       1.039   2.400  -3.095  0.00  0.00     0.039 A 
ENDROOT
BRANCH   4   7
ATOM      7  O   UNL d   1      -2.450   3.381  -2.807  0.00  0.00    -0.526 OA
ATOM      8  H5  UNL d   1      -3.178   2.928  -2.350  0.00  0.00     0.418 HD
ENDBRANCH   4   7
TORSDOF 1
ENDMDL
