MODEL 1
REMARK minimizedAffinity -4.61453533
REMARK minimizedRMSD -1
REMARK  1 active torsions:
REMARK  status: ('A' for Active; 'I' for Inactive)
REMARK    1  A    between atoms: C3_4  and  O_7 
ROOT
ATOM      1  C   UNL d   1      -0.529  -0.063  -0.146  0.00  0.00    -0.033 A 
ATOM      2  C1  UNL d   1       0.836  -0.317  -0.285  0.00  0.00     0.039 A 
ATOM      3  C2  UNL d   1       1.614  -0.597   0.840  0.00  0.00    -0.080 A 
ATOM      4  C3  UNL d   1       1.015  -0.620   2.096  0.00  0.00     0.150 A 
ATOM      5  C4  UNL d   1      -0.346  -0.372   2.242  0.00  0.00    -0.007 A 
ATOM      6  C5  UNL d   1      -1.121  -0.092   1.117  0.00  0.00     0.039 A 
ENDROOT
BRANCH   4   7
ATOM      7  O   UNL d   1       1.735  -0.884   3.224  0.00  0.00    -0.526 OA
ATOM      8  H5  UNL d   1       2.665  -1.007   2.973  0.00  0.00     0.418 HD
ENDBRANCH   4   7
TORSDOF 1
ENDMDL
