MODEL 1
REMARK minimizedAffinity -3.90274096
REMARK minimizedRMSD -1
REMARK  1 active torsions:
REMARK  status: ('A' for Active; 'I' for Inactive)
REMARK    1  A    between atoms: C3_4  and  O_7 
ROOT
ATOM      1  C   UNL d   1       0.350  -0.785   2.597  0.00  0.00    -0.033 A 
ATOM      2  C1  UNL d   1       1.328  -1.038   1.633  0.00  0.00     0.039 A 
ATOM      3  C2  UNL d   1       1.059  -0.798   0.284  0.00  0.00    -0.080 A 
ATOM      4  C3  UNL d   1      -0.189  -0.306  -0.087  0.00  0.00     0.150 A 
ATOM      5  C4  UNL d   1      -1.167  -0.049   0.868  0.00  0.00    -0.007 A 
ATOM      6  C5  UNL d   1      -0.897  -0.290   2.215  0.00  0.00     0.039 A 
ENDROOT
BRANCH   4   7
ATOM      7  O   UNL d   1      -0.499  -0.061  -1.392  0.00  0.00    -0.526 OA
ATOM      8  H5  UNL d   1       0.262  -0.312  -1.941  0.00  0.00     0.418 HD
ENDBRANCH   4   7
TORSDOF 1
ENDMDL
