MODEL 1
REMARK minimizedAffinity -3.30859995
REMARK minimizedRMSD -1
REMARK  1 active torsions:
REMARK  status: ('A' for Active; 'I' for Inactive)
REMARK    1  A    between atoms: N_2  and  C1_3 
ROOT
ATOM      1  C1  UNL d   1       0.357  -0.293   0.023  0.00  0.00     0.143 A 
ATOM      2  C2  UNL d   1       0.115  -0.390   1.398  0.00  0.00    -0.057 A 
ATOM      3  C3  UNL d   1      -0.589   0.608   2.083  0.00  0.00     0.033 A 
ATOM      4  C4  UNL d   1      -1.039   1.738   1.409  0.00  0.00    -0.042 A 
ATOM      5  C5  UNL d   1      -0.788   1.867   0.047  0.00  0.00     0.033 A 
ATOM      6  C6  UNL d   1      -0.090   0.865  -0.633  0.00  0.00    -0.057 A 
ENDROOT
BRANCH   1   7
ATOM      7  N   UNL d   1       1.136  -1.203  -0.695  0.00  0.00    -0.732 N 
ATOM      8  C   UNL d   1       0.532  -2.070  -1.684  0.00  0.00     0.284 C 
ATOM      9  H3  UNL d   1       2.031  -0.811  -0.978  0.00  0.00     0.395 HD
ENDBRANCH   1   7
TORSDOF 1
ENDMDL
