MODEL 1
REMARK minimizedAffinity 0.316534191
REMARK minimizedRMSD -1
REMARK  1 active torsions:
REMARK  status: ('A' for Active; 'I' for Inactive)
REMARK    1  A    between atoms: N_2  and  C1_3 
ROOT
ATOM      1  C1  UNL d   1       0.365  -1.356  -1.821  0.00  0.00     0.143 A 
ATOM      2  C2  UNL d   1      -0.003  -0.022  -2.028  0.00  0.00    -0.057 A 
ATOM      3  C3  UNL d   1      -0.134   0.869  -0.956  0.00  0.00     0.033 A 
ATOM      4  C4  UNL d   1       0.073   0.433   0.349  0.00  0.00    -0.042 A 
ATOM      5  C5  UNL d   1       0.415  -0.895   0.580  0.00  0.00     0.033 A 
ATOM      6  C6  UNL d   1       0.551  -1.778  -0.495  0.00  0.00    -0.057 A 
ENDROOT
BRANCH   1   7
ATOM      7  N   UNL d   1       0.416  -2.315  -2.836  0.00  0.00    -0.732 N 
ATOM      8  C   UNL d   1       0.667  -3.705  -2.524  0.00  0.00     0.284 C 
ATOM      9  H3  UNL d   1      -0.301  -2.170  -3.543  0.00  0.00     0.395 HD
ENDBRANCH   1   7
TORSDOF 1
ENDMDL
