MODEL 1
REMARK minimizedAffinity -1.34444094
REMARK minimizedRMSD -1
REMARK  1 active torsions:
REMARK  status: ('A' for Active; 'I' for Inactive)
REMARK    1  A    between atoms: N_2  and  C1_3 
ROOT
ATOM      1  C1  UNL d   1       0.161   0.189  -0.228  0.00  0.00     0.143 A 
ATOM      2  C2  UNL d   1      -0.305   1.507  -0.260  0.00  0.00    -0.057 A 
ATOM      3  C3  UNL d   1      -0.986   2.064   0.829  0.00  0.00     0.033 A 
ATOM      4  C4  UNL d   1      -1.238   1.299   1.963  0.00  0.00    -0.042 A 
ATOM      5  C5  UNL d   1      -0.806  -0.022   2.008  0.00  0.00     0.033 A 
ATOM      6  C6  UNL d   1      -0.121  -0.569   0.919  0.00  0.00    -0.057 A 
ENDROOT
BRANCH   1   7
ATOM      7  N   UNL d   1       0.758  -0.453  -1.316  0.00  0.00    -0.732 N 
ATOM      8  C   UNL d   1       1.133  -1.848  -1.235  0.00  0.00     0.284 C 
ATOM      9  H3  UNL d   1       0.335  -0.187  -2.203  0.00  0.00     0.395 HD
ENDBRANCH   1   7
TORSDOF 1
ENDMDL
