MODEL 1
REMARK minimizedAffinity 2.48872662
REMARK minimizedRMSD -1
REMARK  1 active torsions:
REMARK  status: ('A' for Active; 'I' for Inactive)
REMARK    1  A    between atoms: N_2  and  C1_3 
ROOT
ATOM      1  C1  UNL d   1       0.355  -0.035   0.012  0.00  0.00     0.143 A 
ATOM      2  C2  UNL d   1      -0.646   0.936   0.128  0.00  0.00    -0.057 A 
ATOM      3  C3  UNL d   1      -0.632   2.091  -0.663  0.00  0.00     0.033 A 
ATOM      4  C4  UNL d   1       0.403   2.310  -1.567  0.00  0.00    -0.042 A 
ATOM      5  C5  UNL d   1       1.421   1.370  -1.681  0.00  0.00     0.033 A 
ATOM      6  C6  UNL d   1       1.398   0.215  -0.893  0.00  0.00    -0.057 A 
ENDROOT
BRANCH   1   7
ATOM      7  N   UNL d   1       0.450  -1.157   0.840  0.00  0.00    -0.732 N 
ATOM      8  C   UNL d   1       0.964  -1.037   2.187  0.00  0.00     0.284 C 
ATOM      9  H3  UNL d   1      -0.357  -1.771   0.756  0.00  0.00     0.395 HD
ENDBRANCH   1   7
TORSDOF 1
ENDMDL
