MODEL 1
REMARK minimizedAffinity -1.16591656
REMARK minimizedRMSD -1
REMARK  1 active torsions:
REMARK  status: ('A' for Active; 'I' for Inactive)
REMARK    1  A    between atoms: N_2  and  C1_3 
ROOT
ATOM      1  C1  UNL d   1       0.328  -0.863  -0.983  0.00  0.00     0.143 A 
ATOM      2  C2  UNL d   1       0.511   0.347  -1.661  0.00  0.00    -0.057 A 
ATOM      3  C3  UNL d   1       0.062   1.558  -1.121  0.00  0.00     0.033 A 
ATOM      4  C4  UNL d   1      -0.606   1.577   0.099  0.00  0.00    -0.042 A 
ATOM      5  C5  UNL d   1      -0.822   0.383   0.779  0.00  0.00     0.033 A 
ATOM      6  C6  UNL d   1      -0.365  -0.822   0.237  0.00  0.00    -0.057 A 
ENDROOT
BRANCH   1   7
ATOM      7  N   UNL d   1       0.664  -2.111  -1.513  0.00  0.00    -0.732 N 
ATOM      8  C   UNL d   1      -0.121  -2.694  -2.579  0.00  0.00     0.284 C 
ATOM      9  H3  UNL d   1       1.669  -2.227  -1.625  0.00  0.00     0.395 HD
ENDBRANCH   1   7
TORSDOF 1
ENDMDL
