MODEL 1
REMARK minimizedAffinity -2.31981182
REMARK minimizedRMSD -1
REMARK  1 active torsions:
REMARK  status: ('A' for Active; 'I' for Inactive)
REMARK    1  A    between atoms: N_2  and  C1_3 
ROOT
ATOM      1  C1  UNL d   1       1.077  -0.839  -0.615  0.00  0.00     0.143 A 
ATOM      2  C2  UNL d   1       1.352   0.324  -1.342  0.00  0.00    -0.057 A 
ATOM      3  C3  UNL d   1       0.824   1.563  -0.957  0.00  0.00     0.033 A 
ATOM      4  C4  UNL d   1      -0.014   1.655   0.149  0.00  0.00    -0.042 A 
ATOM      5  C5  UNL d   1      -0.321   0.508   0.872  0.00  0.00     0.033 A 
ATOM      6  C6  UNL d   1       0.215  -0.725   0.487  0.00  0.00    -0.057 A 
ENDROOT
BRANCH   1   7
ATOM      7  N   UNL d   1       1.492  -2.115  -1.004  0.00  0.00    -0.732 N 
ATOM      8  C   UNL d   1       0.848  -2.795  -2.108  0.00  0.00     0.284 C 
ATOM      9  H3  UNL d   1       2.504  -2.217  -0.986  0.00  0.00     0.395 HD
ENDBRANCH   1   7
TORSDOF 1
ENDMDL
