MODEL 1
REMARK minimizedAffinity -1.28488052
REMARK minimizedRMSD -1
REMARK  1 active torsions:
REMARK  status: ('A' for Active; 'I' for Inactive)
REMARK    1  A    between atoms: N_2  and  C1_3 
ROOT
ATOM      1  C1  UNL d   1      -0.027   0.569   0.018  0.00  0.00     0.143 A 
ATOM      2  C2  UNL d   1       0.045  -0.622   0.749  0.00  0.00    -0.057 A 
ATOM      3  C3  UNL d   1      -0.463  -0.706   2.051  0.00  0.00     0.033 A 
ATOM      4  C4  UNL d   1      -1.027   0.411   2.658  0.00  0.00    -0.042 A 
ATOM      5  C5  UNL d   1      -1.087   1.612   1.960  0.00  0.00     0.033 A 
ATOM      6  C6  UNL d   1      -0.584   1.688   0.657  0.00  0.00    -0.057 A 
ENDROOT
BRANCH   1   7
ATOM      7  N   UNL d   1       0.548   0.743  -1.243  0.00  0.00    -0.732 N 
ATOM      8  C   UNL d   1       0.636   2.060  -1.837  0.00  0.00     0.284 C 
ATOM      9  H3  UNL d   1       1.380   0.173  -1.372  0.00  0.00     0.395 HD
ENDBRANCH   1   7
TORSDOF 1
ENDMDL
