MODEL 1
REMARK minimizedAffinity -2.07652187
REMARK minimizedRMSD -1
REMARK  1 active torsions:
REMARK  status: ('A' for Active; 'I' for Inactive)
REMARK    1  A    between atoms: N_2  and  C1_3 
ROOT
ATOM      1  C1  UNL d   1       0.684  -1.329  -0.898  0.00  0.00     0.143 A 
ATOM      2  C2  UNL d   1       1.120  -2.627  -0.614  0.00  0.00    -0.057 A 
ATOM      3  C3  UNL d   1       0.961  -3.665  -1.540  0.00  0.00     0.033 A 
ATOM      4  C4  UNL d   1       0.334  -3.428  -2.759  0.00  0.00    -0.042 A 
ATOM      5  C5  UNL d   1      -0.130  -2.151  -3.052  0.00  0.00     0.033 A 
ATOM      6  C6  UNL d   1       0.038  -1.117  -2.126  0.00  0.00    -0.057 A 
ENDROOT
BRANCH   1   7
ATOM      7  N   UNL d   1       0.725  -0.276   0.020  0.00  0.00    -0.732 N 
ATOM      8  C   UNL d   1      -0.038  -0.339   1.248  0.00  0.00     0.284 C 
ATOM      9  H3  UNL d   1       1.661   0.106   0.131  0.00  0.00     0.395 HD
ENDBRANCH   1   7
TORSDOF 1
ENDMDL
