MODEL 1
REMARK minimizedAffinity -5.01290417
REMARK minimizedRMSD -1
REMARK  1 active torsions:
REMARK  status: ('A' for Active; 'I' for Inactive)
REMARK    1  A    between atoms: N_2  and  C1_3 
ROOT
ATOM      1  C1  UNL d   1      -0.479   1.349   0.562  0.00  0.00     0.143 A 
ATOM      2  C2  UNL d   1      -0.296   2.450  -0.281  0.00  0.00    -0.057 A 
ATOM      3  C3  UNL d   1      -0.970   3.657  -0.056  0.00  0.00     0.033 A 
ATOM      4  C4  UNL d   1      -1.864   3.774   1.002  0.00  0.00    -0.042 A 
ATOM      5  C5  UNL d   1      -2.081   2.684   1.838  0.00  0.00     0.033 A 
ATOM      6  C6  UNL d   1      -1.400   1.484   1.612  0.00  0.00    -0.057 A 
ENDROOT
BRANCH   1   7
ATOM      7  N   UNL d   1       0.087   0.092   0.333  0.00  0.00    -0.732 N 
ATOM      8  C   UNL d   1      -0.217  -1.022   1.206  0.00  0.00     0.284 C 
ATOM      9  H3  UNL d   1       0.112  -0.148  -0.655  0.00  0.00     0.395 HD
ENDBRANCH   1   7
TORSDOF 1
ENDMDL
