MODEL 1
REMARK minimizedAffinity -3.96240067
REMARK minimizedRMSD -1
REMARK  1 active torsions:
REMARK  status: ('A' for Active; 'I' for Inactive)
REMARK    1  A    between atoms: N_2  and  C1_3 
ROOT
ATOM      1  C1  UNL d   1       0.665  -0.825  -0.063  0.00  0.00     0.143 A 
ATOM      2  C2  UNL d   1       0.453   0.386  -0.731  0.00  0.00    -0.057 A 
ATOM      3  C3  UNL d   1      -0.242   1.439  -0.123  0.00  0.00     0.033 A 
ATOM      4  C4  UNL d   1      -0.764   1.288   1.158  0.00  0.00    -0.042 A 
ATOM      5  C5  UNL d   1      -0.586   0.084   1.831  0.00  0.00     0.033 A 
ATOM      6  C6  UNL d   1       0.114  -0.961   1.221  0.00  0.00    -0.057 A 
ENDROOT
BRANCH   1   7
ATOM      7  N   UNL d   1       1.262  -1.943  -0.650  0.00  0.00    -0.732 N 
ATOM      8  C   UNL d   1       0.524  -2.767  -1.585  0.00  0.00     0.284 C 
ATOM      9  H3  UNL d   1       2.227  -1.771  -0.920  0.00  0.00     0.395 HD
ENDBRANCH   1   7
TORSDOF 1
ENDMDL
