MODEL 1
REMARK minimizedAffinity -4.00258827
REMARK minimizedRMSD -1
REMARK  1 active torsions:
REMARK  status: ('A' for Active; 'I' for Inactive)
REMARK    1  A    between atoms: N_2  and  C1_3 
ROOT
ATOM      1  C1  UNL d   1       0.141  -0.176   0.197  0.00  0.00     0.143 A 
ATOM      2  C2  UNL d   1      -0.516  -0.326   1.423  0.00  0.00    -0.057 A 
ATOM      3  C3  UNL d   1      -1.253   0.723   1.985  0.00  0.00     0.033 A 
ATOM      4  C4  UNL d   1      -1.323   1.954   1.343  0.00  0.00    -0.042 A 
ATOM      5  C5  UNL d   1      -0.658   2.135   0.135  0.00  0.00     0.033 A 
ATOM      6  C6  UNL d   1       0.072   1.081  -0.424  0.00  0.00    -0.057 A 
ENDROOT
BRANCH   1   7
ATOM      7  N   UNL d   1       0.971  -1.148  -0.366  0.00  0.00    -0.732 N 
ATOM      8  C   UNL d   1       0.462  -2.064  -1.364  0.00  0.00     0.284 C 
ATOM      9  H3  UNL d   1       1.905  -0.796  -0.562  0.00  0.00     0.395 HD
ENDBRANCH   1   7
TORSDOF 1
ENDMDL
