MODEL 1
REMARK minimizedAffinity 9.77398968
REMARK minimizedRMSD -1
REMARK  0 active torsions:
REMARK  status: ('A' for Active; 'I' for Inactive)
ROOT
ATOM      1  C   UNL d   1       0.823  -2.171   3.302  0.00  0.00     0.023 A 
ATOM      2  C1  UNL d   1       1.314  -1.069   4.001  0.00  0.00     0.003 A 
ATOM      3  C2  UNL d   1       1.759   0.058   3.307  0.00  0.00     0.048 A 
ATOM      4  C3  UNL d   1       1.709   0.077   1.914  0.00  0.00     0.023 A 
ATOM      5  C4  UNL d   1       1.217  -1.023   1.210  0.00  0.00     0.048 A 
ATOM      6  C5  UNL d   1       0.774  -2.149   1.908  0.00  0.00     0.003 A 
ATOM      7  I   UNL d   1       2.370   1.753   0.879  0.00  0.00    -0.146 I 
ENDROOT
TORSDOF 0
ENDMDL
