MODEL 1
REMARK minimizedAffinity 6.25690508
REMARK minimizedRMSD -1
REMARK  0 active torsions:
REMARK  status: ('A' for Active; 'I' for Inactive)
ROOT
ATOM      1  C   UNL d   1       1.088  -2.194   2.426  0.00  0.00     0.023 A 
ATOM      2  C1  UNL d   1       0.481  -1.519   3.485  0.00  0.00     0.003 A 
ATOM      3  C2  UNL d   1       0.657  -0.141   3.630  0.00  0.00     0.048 A 
ATOM      4  C3  UNL d   1       1.441   0.555   2.711  0.00  0.00     0.023 A 
ATOM      5  C4  UNL d   1       2.050  -0.115   1.649  0.00  0.00     0.048 A 
ATOM      6  C5  UNL d   1       1.872  -1.493   1.509  0.00  0.00     0.003 A 
ATOM      7  I   UNL d   1       1.705   2.606   2.924  0.00  0.00    -0.146 I 
ENDROOT
TORSDOF 0
ENDMDL
