MODEL 1
REMARK minimizedAffinity 6.21812296
REMARK minimizedRMSD -1
REMARK  0 active torsions:
REMARK  status: ('A' for Active; 'I' for Inactive)
ROOT
ATOM      1  C   UNL d   1       3.872   5.114  -1.554  0.00  0.00     0.023 A 
ATOM      2  C1  UNL d   1       5.118   5.739  -1.610  0.00  0.00     0.003 A 
ATOM      3  C2  UNL d   1       5.721   5.987  -2.845  0.00  0.00     0.048 A 
ATOM      4  C3  UNL d   1       5.072   5.608  -4.020  0.00  0.00     0.023 A 
ATOM      5  C4  UNL d   1       3.825   4.983  -3.968  0.00  0.00     0.048 A 
ATOM      6  C5  UNL d   1       3.227   4.736  -2.731  0.00  0.00     0.003 A 
ATOM      7  I   UNL d   1       5.967   5.977  -5.859  0.00  0.00    -0.146 I 
ENDROOT
TORSDOF 0
ENDMDL
