MODEL 1
REMARK minimizedAffinity 5.17227554
REMARK minimizedRMSD -1
REMARK  0 active torsions:
REMARK  status: ('A' for Active; 'I' for Inactive)
ROOT
ATOM      1  C   UNL d   1      -5.207  -5.497  -5.996  0.00  0.00     0.023 A 
ATOM      2  C1  UNL d   1      -5.955  -4.319  -5.998  0.00  0.00     0.003 A 
ATOM      3  C2  UNL d   1      -5.617  -3.274  -5.136  0.00  0.00     0.048 A 
ATOM      4  C3  UNL d   1      -4.529  -3.413  -4.274  0.00  0.00     0.023 A 
ATOM      5  C4  UNL d   1      -3.778  -4.590  -4.269  0.00  0.00     0.048 A 
ATOM      6  C5  UNL d   1      -4.120  -5.632  -5.132  0.00  0.00     0.003 A 
ATOM      7  I   UNL d   1      -4.024  -1.860  -2.989  0.00  0.00    -0.146 I 
ENDROOT
TORSDOF 0
ENDMDL
