MODEL 1
REMARK minimizedAffinity 6.64303398
REMARK minimizedRMSD -1
REMARK  0 active torsions:
REMARK  status: ('A' for Active; 'I' for Inactive)
ROOT
ATOM      1  C   UNL d   1      -5.006  -5.989  -5.928  0.00  0.00     0.023 A 
ATOM      2  C1  UNL d   1      -3.794  -5.716  -5.294  0.00  0.00     0.003 A 
ATOM      3  C2  UNL d   1      -3.574  -4.463  -4.717  0.00  0.00     0.048 A 
ATOM      4  C3  UNL d   1      -4.570  -3.490  -4.777  0.00  0.00     0.023 A 
ATOM      5  C4  UNL d   1      -5.785  -3.759  -5.410  0.00  0.00     0.048 A 
ATOM      6  C5  UNL d   1      -6.000  -5.012  -5.986  0.00  0.00     0.003 A 
ATOM      7  I   UNL d   1      -4.245  -1.625  -3.918  0.00  0.00    -0.146 I 
ENDROOT
TORSDOF 0
ENDMDL
