MODEL 1
REMARK minimizedAffinity -0.66723448
REMARK minimizedRMSD -1
REMARK  0 active torsions:
REMARK  status: ('A' for Active; 'I' for Inactive)
ROOT
ATOM      1  C   UNL d   1       1.292  -1.883  -0.568  0.00  0.00     0.124 A 
ATOM      2  C1  UNL d   1       2.082  -0.760  -0.769  0.00  0.00     0.062 A 
ATOM      3  C2  UNL d   1       1.491   0.485  -0.966  0.00  0.00     0.162 A 
ATOM      4  C3  UNL d   1       0.102   0.614  -0.961  0.00  0.00    -0.034 A 
ATOM      5  C4  UNL d   1      -0.686  -0.521  -0.760  0.00  0.00     0.162 A 
ATOM      6  C5  UNL d   1      -0.091  -1.763  -0.563  0.00  0.00     0.062 A 
ATOM      7  F   UNL d   1      -0.856  -2.847  -0.369  0.00  0.00    -0.097 F 
ATOM      8  F1  UNL d   1      -2.024  -0.433  -0.749  0.00  0.00    -0.096 F 
ATOM      9  I   UNL d   1      -0.784   2.473  -1.255  0.00  0.00    -0.060 I 
ATOM     10  F2  UNL d   1       2.279   1.553  -1.157  0.00  0.00    -0.096 F 
ATOM     11  F3  UNL d   1       3.418  -0.874  -0.775  0.00  0.00    -0.097 F 
ATOM     12  F4  UNL d   1       1.863  -3.080  -0.380  0.00  0.00    -0.092 F 
ENDROOT
TORSDOF 0
ENDMDL
