MODEL 1
REMARK minimizedAffinity 5.24461174
REMARK minimizedRMSD -1
REMARK  0 active torsions:
REMARK  status: ('A' for Active; 'I' for Inactive)
ROOT
ATOM      1  C   UNL d   1       1.696  -0.504  -1.702  0.00  0.00     0.124 A 
ATOM      2  C1  UNL d   1       0.988   0.674  -1.508  0.00  0.00     0.062 A 
ATOM      3  C2  UNL d   1       0.105   0.791  -0.438  0.00  0.00     0.162 A 
ATOM      4  C3  UNL d   1      -0.074  -0.273   0.446  0.00  0.00    -0.034 A 
ATOM      5  C4  UNL d   1       0.641  -1.455   0.244  0.00  0.00     0.162 A 
ATOM      6  C5  UNL d   1       1.522  -1.567  -0.827  0.00  0.00     0.062 A 
ATOM      7  F   UNL d   1       2.206  -2.705  -1.013  0.00  0.00    -0.097 F 
ATOM      8  F1  UNL d   1       0.493  -2.497   1.075  0.00  0.00    -0.096 F 
ATOM      9  I   UNL d   1      -1.393  -0.102   2.047  0.00  0.00    -0.060 I 
ATOM     10  F2  UNL d   1      -0.566   1.940  -0.274  0.00  0.00    -0.096 F 
ATOM     11  F3  UNL d   1       1.153   1.701  -2.353  0.00  0.00    -0.097 F 
ATOM     12  F4  UNL d   1       2.544  -0.614  -2.733  0.00  0.00    -0.092 F 
ENDROOT
TORSDOF 0
ENDMDL
