MODEL 1
REMARK minimizedAffinity 0.811689734
REMARK minimizedRMSD -1
REMARK  0 active torsions:
REMARK  status: ('A' for Active; 'I' for Inactive)
ROOT
ATOM      1  C   UNL d   1      -0.615  -0.533   0.173  0.00  0.00     0.124 A 
ATOM      2  C1  UNL d   1       0.187  -1.658   0.043  0.00  0.00     0.062 A 
ATOM      3  C2  UNL d   1       1.415  -1.571  -0.606  0.00  0.00     0.162 A 
ATOM      4  C3  UNL d   1       1.851  -0.353  -1.128  0.00  0.00    -0.034 A 
ATOM      5  C4  UNL d   1       1.038   0.774  -0.994  0.00  0.00     0.162 A 
ATOM      6  C5  UNL d   1      -0.189   0.682  -0.346  0.00  0.00     0.062 A 
ATOM      7  F   UNL d   1      -0.963   1.770  -0.221  0.00  0.00    -0.097 F 
ATOM      8  F1  UNL d   1       1.426   1.961  -1.485  0.00  0.00    -0.096 F 
ATOM      9  I   UNL d   1       3.687  -0.218  -2.098  0.00  0.00    -0.060 I 
ATOM     10  F2  UNL d   1       2.170  -2.674  -0.717  0.00  0.00    -0.096 F 
ATOM     11  F3  UNL d   1      -0.223  -2.833   0.542  0.00  0.00    -0.097 F 
ATOM     12  F4  UNL d   1      -1.798  -0.620   0.796  0.00  0.00    -0.092 F 
ENDROOT
TORSDOF 0
ENDMDL
