MODEL 1
REMARK minimizedAffinity 0.43288365
REMARK minimizedRMSD -1
REMARK  0 active torsions:
REMARK  status: ('A' for Active; 'I' for Inactive)
ROOT
ATOM      1  C   UNL d   1      -1.624   0.829  -0.341  0.00  0.00     0.124 A 
ATOM      2  C1  UNL d   1      -1.211  -0.364   0.236  0.00  0.00     0.062 A 
ATOM      3  C2  UNL d   1       0.119  -0.763   0.142  0.00  0.00     0.162 A 
ATOM      4  C3  UNL d   1       1.047   0.032  -0.531  0.00  0.00    -0.034 A 
ATOM      5  C4  UNL d   1       0.623   1.230  -1.109  0.00  0.00     0.162 A 
ATOM      6  C5  UNL d   1      -0.707   1.624  -1.013  0.00  0.00     0.062 A 
ATOM      7  F   UNL d   1      -1.104   2.777  -1.571  0.00  0.00    -0.097 F 
ATOM      8  F1  UNL d   1       1.489   2.018  -1.764  0.00  0.00    -0.096 F 
ATOM      9  I   UNL d   1       3.036  -0.561  -0.673  0.00  0.00    -0.060 I 
ATOM     10  F2  UNL d   1       0.490  -1.921   0.709  0.00  0.00    -0.096 F 
ATOM     11  F3  UNL d   1      -2.096  -1.135   0.885  0.00  0.00    -0.097 F 
ATOM     12  F4  UNL d   1      -2.905   1.210  -0.250  0.00  0.00    -0.092 F 
ENDROOT
TORSDOF 0
ENDMDL
