MODEL 1
REMARK minimizedAffinity 0.397226304
REMARK minimizedRMSD -1
REMARK  0 active torsions:
REMARK  status: ('A' for Active; 'I' for Inactive)
ROOT
ATOM      1  C   UNL d   1       1.864  -0.425  -1.304  0.00  0.00     0.124 A 
ATOM      2  C1  UNL d   1       1.377  -1.591  -0.729  0.00  0.00     0.062 A 
ATOM      3  C2  UNL d   1       0.227  -1.557   0.055  0.00  0.00     0.162 A 
ATOM      4  C3  UNL d   1      -0.445  -0.354   0.267  0.00  0.00    -0.034 A 
ATOM      5  C4  UNL d   1       0.051   0.815  -0.313  0.00  0.00     0.162 A 
ATOM      6  C5  UNL d   1       1.201   0.776  -1.096  0.00  0.00     0.062 A 
ATOM      7  F   UNL d   1       1.670   1.903  -1.651  0.00  0.00    -0.097 F 
ATOM      8  F1  UNL d   1      -0.570   1.989  -0.129  0.00  0.00    -0.096 F 
ATOM      9  I   UNL d   1      -2.165  -0.300   1.439  0.00  0.00    -0.060 I 
ATOM     10  F2  UNL d   1      -0.221  -2.699   0.598  0.00  0.00    -0.096 F 
ATOM     11  F3  UNL d   1       2.016  -2.753  -0.928  0.00  0.00    -0.097 F 
ATOM     12  F4  UNL d   1       2.971  -0.460  -2.057  0.00  0.00    -0.092 F 
ENDROOT
TORSDOF 0
ENDMDL
