MODEL 1
REMARK minimizedAffinity -3.40025043
REMARK minimizedRMSD -1
REMARK  0 active torsions:
REMARK  status: ('A' for Active; 'I' for Inactive)
ROOT
ATOM      1  C   UNL d   1       2.622  -0.706  -1.280  0.00  0.00     0.124 A 
ATOM      2  C1  UNL d   1       1.835  -1.790  -0.915  0.00  0.00     0.062 A 
ATOM      3  C2  UNL d   1       0.597  -1.585  -0.313  0.00  0.00     0.162 A 
ATOM      4  C3  UNL d   1       0.138  -0.291  -0.071  0.00  0.00    -0.034 A 
ATOM      5  C4  UNL d   1       0.935   0.794  -0.439  0.00  0.00     0.162 A 
ATOM      6  C5  UNL d   1       2.172   0.584  -1.041  0.00  0.00     0.062 A 
ATOM      7  F   UNL d   1       2.931   1.633  -1.392  0.00  0.00    -0.097 F 
ATOM      8  F1  UNL d   1       0.524   2.052  -0.221  0.00  0.00    -0.096 F 
ATOM      9  I   UNL d   1      -1.713   0.020   0.830  0.00  0.00    -0.060 I 
ATOM     10  F2  UNL d   1      -0.143  -2.651   0.028  0.00  0.00    -0.096 F 
ATOM     11  F3  UNL d   1       2.268  -3.038  -1.144  0.00  0.00    -0.097 F 
ATOM     12  F4  UNL d   1       3.813  -0.907  -1.858  0.00  0.00    -0.092 F 
ENDROOT
TORSDOF 0
ENDMDL
