MODEL 1
REMARK minimizedAffinity -0.416354418
REMARK minimizedRMSD -1
REMARK  0 active torsions:
REMARK  status: ('A' for Active; 'I' for Inactive)
ROOT
ATOM      1  C   UNL d   1       1.414  -1.399  -1.053  0.00  0.00     0.124 A 
ATOM      2  C1  UNL d   1       0.048  -1.392  -0.804  0.00  0.00     0.062 A 
ATOM      3  C2  UNL d   1      -0.514  -0.390  -0.018  0.00  0.00     0.162 A 
ATOM      4  C3  UNL d   1       0.289   0.614   0.524  0.00  0.00    -0.034 A 
ATOM      5  C4  UNL d   1       1.661   0.599   0.269  0.00  0.00     0.162 A 
ATOM      6  C5  UNL d   1       2.219  -0.404  -0.517  0.00  0.00     0.062 A 
ATOM      7  F   UNL d   1       3.538  -0.410  -0.757  0.00  0.00    -0.097 F 
ATOM      8  F1  UNL d   1       2.462   1.549   0.774  0.00  0.00    -0.096 F 
ATOM      9  I   UNL d   1      -0.548   2.113   1.699  0.00  0.00    -0.060 I 
ATOM     10  F2  UNL d   1      -1.836  -0.408   0.207  0.00  0.00    -0.096 F 
ATOM     11  F3  UNL d   1      -0.732  -2.353  -1.320  0.00  0.00    -0.097 F 
ATOM     12  F4  UNL d   1       1.952  -2.365  -1.809  0.00  0.00    -0.092 F 
ENDROOT
TORSDOF 0
ENDMDL
