MODEL 1
REMARK minimizedAffinity -2.28330231
REMARK minimizedRMSD -1
REMARK  0 active torsions:
REMARK  status: ('A' for Active; 'I' for Inactive)
ROOT
ATOM      1  C   UNL d   1       1.435   1.482  -1.398  0.00  0.00     0.124 A 
ATOM      2  C1  UNL d   1       2.194   0.323  -1.311  0.00  0.00     0.062 A 
ATOM      3  C2  UNL d   1       1.589  -0.887  -0.981  0.00  0.00     0.162 A 
ATOM      4  C3  UNL d   1       0.217  -0.943  -0.736  0.00  0.00    -0.034 A 
ATOM      5  C4  UNL d   1      -0.539   0.227  -0.824  0.00  0.00     0.162 A 
ATOM      6  C5  UNL d   1       0.070   1.433  -1.154  0.00  0.00     0.062 A 
ATOM      7  F   UNL d   1      -0.664   2.552  -1.238  0.00  0.00    -0.097 F 
ATOM      8  F1  UNL d   1      -1.861   0.208  -0.595  0.00  0.00    -0.096 F 
ATOM      9  I   UNL d   1      -0.692  -2.749  -0.242  0.00  0.00    -0.060 I 
ATOM     10  F2  UNL d   1       2.346  -1.991  -0.904  0.00  0.00    -0.096 F 
ATOM     11  F3  UNL d   1       3.513   0.367  -1.545  0.00  0.00    -0.097 F 
ATOM     12  F4  UNL d   1       2.020   2.644  -1.715  0.00  0.00    -0.092 F 
ENDROOT
TORSDOF 0
ENDMDL
