MODEL 1
REMARK minimizedAffinity -1.75208378
REMARK minimizedRMSD -1
REMARK  0 active torsions:
REMARK  status: ('A' for Active; 'I' for Inactive)
ROOT
ATOM      1  C   UNL d   1       1.272  -1.960  -0.399  0.00  0.00     0.124 A 
ATOM      2  C1  UNL d   1      -0.092  -1.727  -0.512  0.00  0.00     0.062 A 
ATOM      3  C2  UNL d   1      -0.561  -0.454  -0.824  0.00  0.00     0.162 A 
ATOM      4  C3  UNL d   1       0.334   0.596  -1.027  0.00  0.00    -0.034 A 
ATOM      5  C4  UNL d   1       1.704   0.354  -0.911  0.00  0.00     0.162 A 
ATOM      6  C5  UNL d   1       2.169  -0.919  -0.599  0.00  0.00     0.062 A 
ATOM      7  F   UNL d   1       3.486  -1.142  -0.491  0.00  0.00    -0.097 F 
ATOM      8  F1  UNL d   1       2.593   1.341  -1.100  0.00  0.00    -0.096 F 
ATOM      9  I   UNL d   1      -0.364   2.500  -1.494  0.00  0.00    -0.060 I 
ATOM     10  F2  UNL d   1      -1.884  -0.258  -0.926  0.00  0.00    -0.096 F 
ATOM     11  F3  UNL d   1      -0.960  -2.730  -0.318  0.00  0.00    -0.097 F 
ATOM     12  F4  UNL d   1       1.721  -3.185  -0.098  0.00  0.00    -0.092 F 
ENDROOT
TORSDOF 0
ENDMDL
