MODEL 1
REMARK minimizedAffinity -4.06038141
REMARK minimizedRMSD -1
REMARK  0 active torsions:
REMARK  status: ('A' for Active; 'I' for Inactive)
ROOT
ATOM      1  C   UNL d   1       1.735   1.357  -2.334  0.00  0.00     0.124 A 
ATOM      2  C1  UNL d   1       0.448   1.600  -1.877  0.00  0.00     0.062 A 
ATOM      3  C2  UNL d   1      -0.164   0.707  -1.002  0.00  0.00     0.162 A 
ATOM      4  C3  UNL d   1       0.511  -0.437  -0.578  0.00  0.00    -0.034 A 
ATOM      5  C4  UNL d   1       1.806  -0.675  -1.043  0.00  0.00     0.162 A 
ATOM      6  C5  UNL d   1       2.413   0.220  -1.917  0.00  0.00     0.062 A 
ATOM      7  F   UNL d   1       3.657  -0.016  -2.358  0.00  0.00    -0.097 F 
ATOM      8  F1  UNL d   1       2.484  -1.766  -0.655  0.00  0.00    -0.096 F 
ATOM      9  I   UNL d   1      -0.401  -1.775   0.730  0.00  0.00    -0.060 I 
ATOM     10  F2  UNL d   1      -1.410   0.967  -0.576  0.00  0.00    -0.096 F 
ATOM     11  F3  UNL d   1      -0.209   2.697  -2.279  0.00  0.00    -0.097 F 
ATOM     12  F4  UNL d   1       2.322   2.218  -3.177  0.00  0.00    -0.092 F 
ENDROOT
TORSDOF 0
ENDMDL
