MODEL 1
REMARK minimizedAffinity -0.545651436
REMARK minimizedRMSD -1
REMARK  0 active torsions:
REMARK  status: ('A' for Active; 'I' for Inactive)
ROOT
ATOM      1  C   UNL d   1      -1.827   1.181   3.636  0.00  0.00     0.124 A 
ATOM      2  C1  UNL d   1      -2.375   0.515   2.548  0.00  0.00     0.062 A 
ATOM      3  C2  UNL d   1      -1.626   0.335   1.388  0.00  0.00     0.162 A 
ATOM      4  C3  UNL d   1      -0.321   0.820   1.311  0.00  0.00    -0.034 A 
ATOM      5  C4  UNL d   1       0.223   1.490   2.408  0.00  0.00     0.162 A 
ATOM      6  C5  UNL d   1      -0.529   1.667   3.565  0.00  0.00     0.062 A 
ATOM      7  F   UNL d   1       0.002   2.311   4.615  0.00  0.00    -0.097 F 
ATOM      8  F1  UNL d   1       1.475   1.969   2.368  0.00  0.00    -0.096 F 
ATOM      9  I   UNL d   1       0.801   0.553  -0.421  0.00  0.00    -0.060 I 
ATOM     10  F2  UNL d   1      -2.181  -0.312   0.353  0.00  0.00    -0.096 F 
ATOM     11  F3  UNL d   1      -3.629   0.045   2.614  0.00  0.00    -0.097 F 
ATOM     12  F4  UNL d   1      -2.550   1.354   4.750  0.00  0.00    -0.092 F 
ENDROOT
TORSDOF 0
ENDMDL
