MODEL 1
REMARK minimizedAffinity 0.827144623
REMARK minimizedRMSD -1
REMARK  0 active torsions:
REMARK  status: ('A' for Active; 'I' for Inactive)
ROOT
ATOM      1  C   UNL d   1       2.324  -0.700  -1.473  0.00  0.00     0.124 A 
ATOM      2  C1  UNL d   1       1.375  -1.686  -1.242  0.00  0.00     0.062 A 
ATOM      3  C2  UNL d   1       0.277  -1.423  -0.427  0.00  0.00     0.162 A 
ATOM      4  C3  UNL d   1       0.121  -0.168   0.161  0.00  0.00    -0.034 A 
ATOM      5  C4  UNL d   1       1.081   0.818  -0.076  0.00  0.00     0.162 A 
ATOM      6  C5  UNL d   1       2.176   0.551  -0.891  0.00  0.00     0.062 A 
ATOM      7  F   UNL d   1       3.092   1.505  -1.113  0.00  0.00    -0.097 F 
ATOM      8  F1  UNL d   1       0.962   2.036   0.473  0.00  0.00    -0.096 F 
ATOM      9  I   UNL d   1      -1.519   0.229   1.379  0.00  0.00    -0.060 I 
ATOM     10  F2  UNL d   1      -0.624  -2.395  -0.221  0.00  0.00    -0.096 F 
ATOM     11  F3  UNL d   1       1.516  -2.896  -1.803  0.00  0.00    -0.097 F 
ATOM     12  F4  UNL d   1       3.380  -0.956  -2.256  0.00  0.00    -0.092 F 
ENDROOT
TORSDOF 0
ENDMDL
