MODEL 1
REMARK minimizedAffinity 2.95277309
REMARK minimizedRMSD -1
REMARK  0 active torsions:
REMARK  status: ('A' for Active; 'I' for Inactive)
ROOT
ATOM      1  C   UNL d   1      -1.808   1.015   3.097  0.00  0.00     0.124 A 
ATOM      2  C1  UNL d   1      -0.757   1.913   2.973  0.00  0.00     0.062 A 
ATOM      3  C2  UNL d   1      -0.042   1.994   1.781  0.00  0.00     0.162 A 
ATOM      4  C3  UNL d   1      -0.376   1.175   0.703  0.00  0.00    -0.034 A 
ATOM      5  C4  UNL d   1      -1.433   0.273   0.836  0.00  0.00     0.162 A 
ATOM      6  C5  UNL d   1      -2.145   0.196   2.029  0.00  0.00     0.062 A 
ATOM      7  F   UNL d   1      -3.159  -0.673   2.147  0.00  0.00    -0.097 F 
ATOM      8  F1  UNL d   1      -1.781  -0.530  -0.181  0.00  0.00    -0.096 F 
ATOM      9  I   UNL d   1       0.691   1.293  -1.080  0.00  0.00    -0.060 I 
ATOM     10  F2  UNL d   1       0.968   2.871   1.690  0.00  0.00    -0.096 F 
ATOM     11  F3  UNL d   1      -0.429   2.705   4.004  0.00  0.00    -0.097 F 
ATOM     12  F4  UNL d   1      -2.493   0.938   4.245  0.00  0.00    -0.092 F 
ENDROOT
TORSDOF 0
ENDMDL
