MODEL 1
REMARK minimizedAffinity -0.406585068
REMARK minimizedRMSD -1
REMARK  0 active torsions:
REMARK  status: ('A' for Active; 'I' for Inactive)
ROOT
ATOM      1  C   UNL d   1      -2.299   0.154   2.052  0.00  0.00     0.124 A 
ATOM      2  C1  UNL d   1      -2.230  -1.073   1.408  0.00  0.00     0.062 A 
ATOM      3  C2  UNL d   1      -1.173  -1.352   0.546  0.00  0.00     0.162 A 
ATOM      4  C3  UNL d   1      -0.177  -0.402   0.323  0.00  0.00    -0.034 A 
ATOM      5  C4  UNL d   1      -0.254   0.831   0.974  0.00  0.00     0.162 A 
ATOM      6  C5  UNL d   1      -1.312   1.105   1.835  0.00  0.00     0.062 A 
ATOM      7  F   UNL d   1      -1.377   2.291   2.457  0.00  0.00    -0.097 F 
ATOM      8  F1  UNL d   1       0.687   1.767   0.783  0.00  0.00    -0.096 F 
ATOM      9  I   UNL d   1       1.405  -0.815  -0.965  0.00  0.00    -0.060 I 
ATOM     10  F2  UNL d   1      -1.132  -2.546  -0.063  0.00  0.00    -0.096 F 
ATOM     11  F3  UNL d   1      -3.183  -1.993   1.616  0.00  0.00    -0.097 F 
ATOM     12  F4  UNL d   1      -3.317   0.421   2.881  0.00  0.00    -0.092 F 
ENDROOT
TORSDOF 0
ENDMDL
