MODEL 1
REMARK minimizedAffinity 0.98372066
REMARK minimizedRMSD -1
REMARK  0 active torsions:
REMARK  status: ('A' for Active; 'I' for Inactive)
ROOT
ATOM      1  C   UNL d   1      -1.333   0.961   0.238  0.00  0.00     0.124 A 
ATOM      2  C1  UNL d   1      -0.560   1.652  -0.685  0.00  0.00     0.062 A 
ATOM      3  C2  UNL d   1       0.603   1.080  -1.191  0.00  0.00     0.162 A 
ATOM      4  C3  UNL d   1       1.001  -0.192  -0.777  0.00  0.00    -0.034 A 
ATOM      5  C4  UNL d   1       0.219  -0.880   0.152  0.00  0.00     0.162 A 
ATOM      6  C5  UNL d   1      -0.943  -0.304   0.655  0.00  0.00     0.062 A 
ATOM      7  F   UNL d   1      -1.688  -0.973   1.547  0.00  0.00    -0.097 F 
ATOM      8  F1  UNL d   1       0.571  -2.104   0.572  0.00  0.00    -0.096 F 
ATOM      9  I   UNL d   1       2.739  -1.051  -1.533  0.00  0.00    -0.060 I 
ATOM     10  F2  UNL d   1       1.331   1.770  -2.082  0.00  0.00    -0.096 F 
ATOM     11  F3  UNL d   1      -0.934   2.874  -1.089  0.00  0.00    -0.097 F 
ATOM     12  F4  UNL d   1      -2.451   1.514   0.725  0.00  0.00    -0.092 F 
ENDROOT
TORSDOF 0
ENDMDL
