MODEL 1
REMARK minimizedAffinity -4.52259302
REMARK minimizedRMSD -1
REMARK  1 active torsions:
REMARK  status: ('A' for Active; 'I' for Inactive)
REMARK    1  A    between atoms: C1_2  and  C2_3 
ROOT
ATOM      1  C2  UNL d   1       0.583  -0.313   0.817  0.00  0.00    -0.081 A 
ATOM      2  C3  UNL d   1       0.618  -1.173   1.921  0.00  0.00     0.006 A 
ATOM      3  C4  UNL d   1       1.808  -1.805   2.290  0.00  0.00     0.002 A 
ATOM      4  C5  UNL d   1       2.984  -1.582   1.566  0.00  0.00    -0.080 A 
ATOM      5  C6  UNL d   1       4.275  -2.230   1.970  0.00  0.00     0.076 C 
ATOM      6  C7  UNL d   1       2.946  -0.737   0.452  0.00  0.00     0.002 A 
ATOM      7  C8  UNL d   1       1.756  -0.105   0.082  0.00  0.00     0.006 A 
ENDROOT
BRANCH   1   8
ATOM      8  C1  UNL d   1      -0.683   0.420   0.455  0.00  0.00     0.054 C 
ATOM      9  C   UNL d   1      -0.593   1.894   0.824  0.00  0.00     0.018 C 
ENDBRANCH   1   8
TORSDOF 1
ENDMDL
