MODEL 1
REMARK minimizedAffinity 1.9648931
REMARK minimizedRMSD -1
REMARK  1 active torsions:
REMARK  status: ('A' for Active; 'I' for Inactive)
REMARK    1  A    between atoms: C1_2  and  C2_3 
ROOT
ATOM      1  C2  UNL d   1      -0.307   1.513   0.529  0.00  0.00    -0.081 A 
ATOM      2  C3  UNL d   1      -1.405   0.645   0.566  0.00  0.00     0.006 A 
ATOM      3  C4  UNL d   1      -1.215  -0.739   0.542  0.00  0.00     0.002 A 
ATOM      4  C5  UNL d   1       0.075  -1.277   0.490  0.00  0.00    -0.080 A 
ATOM      5  C6  UNL d   1       0.294  -2.761   0.495  0.00  0.00     0.076 C 
ATOM      6  C7  UNL d   1       1.171  -0.410   0.435  0.00  0.00     0.002 A 
ATOM      7  C8  UNL d   1       0.982   0.974   0.457  0.00  0.00     0.006 A 
ENDROOT
BRANCH   1   8
ATOM      8  C1  UNL d   1      -0.506   3.005   0.619  0.00  0.00     0.054 C 
ATOM      9  C   UNL d   1      -1.677   3.353   1.526  0.00  0.00     0.018 C 
ENDBRANCH   1   8
TORSDOF 1
ENDMDL
