MODEL 1
REMARK minimizedAffinity -0.598907232
REMARK minimizedRMSD -1
REMARK  1 active torsions:
REMARK  status: ('A' for Active; 'I' for Inactive)
REMARK    1  A    between atoms: C1_2  and  C2_3 
ROOT
ATOM      1  C2  UNL d   1      -1.923  -0.944  -1.679  0.00  0.00    -0.081 A 
ATOM      2  C3  UNL d   1      -0.851  -0.044  -1.647  0.00  0.00     0.006 A 
ATOM      3  C4  UNL d   1       0.091  -0.101  -0.617  0.00  0.00     0.002 A 
ATOM      4  C5  UNL d   1      -0.019  -1.062   0.393  0.00  0.00    -0.080 A 
ATOM      5  C6  UNL d   1       1.002  -1.153   1.488  0.00  0.00     0.076 C 
ATOM      6  C7  UNL d   1      -1.101  -1.949   0.372  0.00  0.00     0.002 A 
ATOM      7  C8  UNL d   1      -2.043  -1.893  -0.658  0.00  0.00     0.006 A 
ENDROOT
BRANCH   1   8
ATOM      8  C1  UNL d   1      -2.904  -0.928  -2.823  0.00  0.00     0.054 C 
ATOM      9  C   UNL d   1      -2.255  -0.415  -4.101  0.00  0.00     0.018 C 
ENDBRANCH   1   8
TORSDOF 1
ENDMDL
