MODEL 1
REMARK minimizedAffinity -0.513853252
REMARK minimizedRMSD -1
REMARK  1 active torsions:
REMARK  status: ('A' for Active; 'I' for Inactive)
REMARK    1  A    between atoms: C1_2  and  C2_3 
ROOT
ATOM      1  C2  UNL d   1      -0.596   1.606   0.525  0.00  0.00    -0.081 A 
ATOM      2  C3  UNL d   1      -0.786   0.243   0.267  0.00  0.00     0.006 A 
ATOM      3  C4  UNL d   1       0.311  -0.602   0.083  0.00  0.00     0.002 A 
ATOM      4  C5  UNL d   1       1.614  -0.101   0.161  0.00  0.00    -0.080 A 
ATOM      5  C6  UNL d   1       2.801  -1.003  -0.004  0.00  0.00     0.076 C 
ATOM      6  C7  UNL d   1       1.804   1.264   0.401  0.00  0.00     0.002 A 
ATOM      7  C8  UNL d   1       0.708   2.110   0.585  0.00  0.00     0.006 A 
ENDROOT
BRANCH   1   8
ATOM      8  C1  UNL d   1      -1.775   2.508   0.788  0.00  0.00     0.054 C 
ATOM      9  C   UNL d   1      -1.409   3.632   1.746  0.00  0.00     0.018 C 
ENDBRANCH   1   8
TORSDOF 1
ENDMDL
