MODEL 1
REMARK minimizedAffinity 0.0647748336
REMARK minimizedRMSD -1
REMARK  1 active torsions:
REMARK  status: ('A' for Active; 'I' for Inactive)
REMARK    1  A    between atoms: C1_2  and  C2_3 
ROOT
ATOM      1  C2  UNL d   1       2.328   1.087   1.622  0.00  0.00    -0.081 A 
ATOM      2  C3  UNL d   1       1.245   1.376   0.783  0.00  0.00     0.006 A 
ATOM      3  C4  UNL d   1       0.688   0.381  -0.023  0.00  0.00     0.002 A 
ATOM      4  C5  UNL d   1       1.199  -0.921   0.002  0.00  0.00    -0.080 A 
ATOM      5  C6  UNL d   1       0.590  -2.007  -0.835  0.00  0.00     0.076 C 
ATOM      6  C7  UNL d   1       2.292  -1.206   0.827  0.00  0.00     0.002 A 
ATOM      7  C8  UNL d   1       2.850  -0.211   1.632  0.00  0.00     0.006 A 
ENDROOT
BRANCH   1   8
ATOM      8  C1  UNL d   1       2.890   2.143   2.540  0.00  0.00     0.054 C 
ATOM      9  C   UNL d   1       2.439   1.923   3.977  0.00  0.00     0.018 C 
ENDBRANCH   1   8
TORSDOF 1
ENDMDL
