MODEL 1
REMARK minimizedAffinity -5.05662394
REMARK minimizedRMSD -1
REMARK  1 active torsions:
REMARK  status: ('A' for Active; 'I' for Inactive)
REMARK    1  A    between atoms: C1_2  and  C2_3 
ROOT
ATOM      1  C2  UNL d   1       0.400   2.002   0.558  0.00  0.00    -0.081 A 
ATOM      2  C3  UNL d   1      -0.468   0.965   0.193  0.00  0.00     0.006 A 
ATOM      3  C4  UNL d   1      -0.035  -0.362   0.215  0.00  0.00     0.002 A 
ATOM      4  C5  UNL d   1       1.270  -0.676   0.610  0.00  0.00    -0.080 A 
ATOM      5  C6  UNL d   1       1.739  -2.100   0.668  0.00  0.00     0.076 C 
ATOM      6  C7  UNL d   1       2.142   0.360   0.959  0.00  0.00     0.002 A 
ATOM      7  C8  UNL d   1       1.710   1.688   0.936  0.00  0.00     0.006 A 
ENDROOT
BRANCH   1   8
ATOM      8  C1  UNL d   1      -0.085   3.429   0.598  0.00  0.00     0.054 C 
ATOM      9  C   UNL d   1      -1.189   3.611   1.629  0.00  0.00     0.018 C 
ENDBRANCH   1   8
TORSDOF 1
ENDMDL
