MODEL 1
REMARK minimizedAffinity -2.91255832
REMARK minimizedRMSD -1
REMARK  1 active torsions:
REMARK  status: ('A' for Active; 'I' for Inactive)
REMARK    1  A    between atoms: C1_2  and  C2_3 
ROOT
ATOM      1  C2  UNL d   1      -0.567   1.029   0.429  0.00  0.00    -0.081 A 
ATOM      2  C3  UNL d   1      -0.660  -0.367   0.479  0.00  0.00     0.006 A 
ATOM      3  C4  UNL d   1       0.494  -1.154   0.496  0.00  0.00     0.002 A 
ATOM      4  C5  UNL d   1       1.760  -0.558   0.473  0.00  0.00    -0.080 A 
ATOM      5  C6  UNL d   1       3.007  -1.389   0.522  0.00  0.00     0.076 C 
ATOM      6  C7  UNL d   1       1.853   0.837   0.406  0.00  0.00     0.002 A 
ATOM      7  C8  UNL d   1       0.699   1.624   0.387  0.00  0.00     0.006 A 
ENDROOT
BRANCH   1   8
ATOM      8  C1  UNL d   1      -1.809   1.882   0.475  0.00  0.00     0.054 C 
ATOM      9  C   UNL d   1      -1.726   2.922   1.583  0.00  0.00     0.018 C 
ENDBRANCH   1   8
TORSDOF 1
ENDMDL
