MODEL 1
REMARK minimizedAffinity -2.47474766
REMARK minimizedRMSD -1
REMARK  0 active torsions:
REMARK  status: ('A' for Active; 'I' for Inactive)
ROOT
ATOM      1  C   UNL d   1       1.679  -1.511  -0.037  0.00  0.00     0.172 C 
ATOM      2  N   UNL d   1       0.735  -0.419   0.014  0.00  0.00    -0.070 N 
ATOM      3  C1  UNL d   1      -0.626  -0.543   0.097  0.00  0.00    -0.004 A 
ATOM      4  C2  UNL d   1      -1.165   0.725   0.123  0.00  0.00    -0.047 A 
ATOM      5  C3  UNL d   1      -0.091   1.643   0.052  0.00  0.00    -0.047 A 
ATOM      6  C4  UNL d   1       1.074   0.908  -0.015  0.00  0.00    -0.004 A 
ENDROOT
TORSDOF 0
ENDMDL
