MODEL 1
REMARK minimizedAffinity -1.30621445
REMARK minimizedRMSD -1
REMARK  0 active torsions:
REMARK  status: ('A' for Active; 'I' for Inactive)
ROOT
ATOM      1  C   UNL d   1       1.563  -2.410  -0.204  0.00  0.00     0.172 C 
ATOM      2  N   UNL d   1       1.560  -1.243   0.646  0.00  0.00    -0.070 N 
ATOM      3  C1  UNL d   1       1.569  -1.252   2.015  0.00  0.00    -0.004 A 
ATOM      4  C2  UNL d   1       1.564   0.057   2.447  0.00  0.00    -0.047 A 
ATOM      5  C3  UNL d   1       1.550   0.881   1.297  0.00  0.00    -0.047 A 
ATOM      6  C4  UNL d   1       1.549   0.051   0.196  0.00  0.00    -0.004 A 
ENDROOT
TORSDOF 0
ENDMDL
