MODEL 1
REMARK minimizedAffinity -3.15389991
REMARK minimizedRMSD -1
REMARK  0 active torsions:
REMARK  status: ('A' for Active; 'I' for Inactive)
ROOT
ATOM      1  C   UNL d   1       1.983  -2.031   0.059  0.00  0.00     0.172 C 
ATOM      2  N   UNL d   1       1.120  -0.882  -0.085  0.00  0.00    -0.070 N 
ATOM      3  C1  UNL d   1       1.394   0.384   0.360  0.00  0.00    -0.004 A 
ATOM      4  C2  UNL d   1       0.325   1.188   0.029  0.00  0.00    -0.047 A 
ATOM      5  C3  UNL d   1      -0.625   0.378  -0.636  0.00  0.00    -0.047 A 
ATOM      6  C4  UNL d   1      -0.108  -0.899  -0.694  0.00  0.00    -0.004 A 
ENDROOT
TORSDOF 0
ENDMDL
