MODEL 1
REMARK minimizedAffinity 4.09383202
REMARK minimizedRMSD -1
REMARK  0 active torsions:
REMARK  status: ('A' for Active; 'I' for Inactive)
ROOT
ATOM      1  C   UNL d   1       1.471  -2.651  -0.401  0.00  0.00     0.172 C 
ATOM      2  N   UNL d   1       2.543  -2.355  -1.322  0.00  0.00    -0.070 N 
ATOM      3  C1  UNL d   1       3.260  -1.189  -1.363  0.00  0.00    -0.004 A 
ATOM      4  C2  UNL d   1       4.188  -1.299  -2.376  0.00  0.00    -0.047 A 
ATOM      5  C3  UNL d   1       4.021  -2.575  -2.965  0.00  0.00    -0.047 A 
ATOM      6  C4  UNL d   1       2.997  -3.207  -2.293  0.00  0.00    -0.004 A 
ENDROOT
TORSDOF 0
ENDMDL
