MODEL 1
REMARK minimizedAffinity 2.72559452
REMARK minimizedRMSD -1
REMARK  0 active torsions:
REMARK  status: ('A' for Active; 'I' for Inactive)
ROOT
ATOM      1  C   UNL d   1       0.394  -1.946   5.968  0.00  0.00     0.172 C 
ATOM      2  N   UNL d   1      -0.088  -3.307   5.981  0.00  0.00    -0.070 N 
ATOM      3  C1  UNL d   1      -1.403  -3.688   5.989  0.00  0.00    -0.004 A 
ATOM      4  C2  UNL d   1      -1.443  -5.066   6.000  0.00  0.00    -0.047 A 
ATOM      5  C3  UNL d   1      -0.106  -5.528   5.999  0.00  0.00    -0.047 A 
ATOM      6  C4  UNL d   1       0.713  -4.419   5.987  0.00  0.00    -0.004 A 
ENDROOT
TORSDOF 0
ENDMDL
