MODEL 1
REMARK minimizedAffinity 7.9034853
REMARK minimizedRMSD -1
REMARK  0 active torsions:
REMARK  status: ('A' for Active; 'I' for Inactive)
ROOT
ATOM      1  C   UNL d   1       1.774  -2.247  -1.278  0.00  0.00     0.172 C 
ATOM      2  N   UNL d   1       1.761  -1.488  -0.049  0.00  0.00    -0.070 N 
ATOM      3  C1  UNL d   1       1.788  -2.014   1.214  0.00  0.00    -0.004 A 
ATOM      4  C2  UNL d   1       1.765  -0.966   2.109  0.00  0.00    -0.047 A 
ATOM      5  C3  UNL d   1       1.722   0.232   1.357  0.00  0.00    -0.047 A 
ATOM      6  C4  UNL d   1       1.720  -0.121   0.023  0.00  0.00    -0.004 A 
ENDROOT
TORSDOF 0
ENDMDL
