MODEL 1
REMARK minimizedAffinity 5.00005579
REMARK minimizedRMSD -1
REMARK  0 active torsions:
REMARK  status: ('A' for Active; 'I' for Inactive)
ROOT
ATOM      1  C   UNL d   1      -2.219  -6.000  -4.073  0.00  0.00     0.172 C 
ATOM      2  N   UNL d   1      -1.670  -5.338  -2.913  0.00  0.00    -0.070 N 
ATOM      3  C1  UNL d   1      -1.261  -5.954  -1.761  0.00  0.00    -0.004 A 
ATOM      4  C2  UNL d   1      -0.802  -4.980  -0.901  0.00  0.00    -0.047 A 
ATOM      5  C3  UNL d   1      -0.941  -3.735  -1.558  0.00  0.00    -0.047 A 
ATOM      6  C4  UNL d   1      -1.481  -3.985  -2.802  0.00  0.00    -0.004 A 
ENDROOT
TORSDOF 0
ENDMDL
