MODEL 1
REMARK minimizedAffinity -3.55152726
REMARK minimizedRMSD -1
REMARK  1 active torsions:
REMARK  status: ('A' for Active; 'I' for Inactive)
REMARK    1  A    between atoms: C3_4  and  O_7 
ROOT
ATOM      1  C   UNL d   1       0.574  -0.891   0.323  0.00  0.00    -0.033 A 
ATOM      2  C1  UNL d   1      -0.056   0.041  -0.505  0.00  0.00     0.039 A 
ATOM      3  C2  UNL d   1      -0.970   0.949   0.033  0.00  0.00    -0.080 A 
ATOM      4  C3  UNL d   1      -1.245   0.915   1.397  0.00  0.00     0.150 A 
ATOM      5  C4  UNL d   1      -0.618  -0.008   2.228  0.00  0.00    -0.007 A 
ATOM      6  C5  UNL d   1       0.293  -0.915   1.689  0.00  0.00     0.039 A 
ENDROOT
BRANCH   4   7
ATOM      7  O   UNL d   1      -2.133   1.779   1.966  0.00  0.00    -0.526 OA
ATOM      8  H5  UNL d   1      -2.509   2.339   1.267  0.00  0.00     0.418 HD
ENDBRANCH   4   7
TORSDOF 1
ENDMDL
