MODEL 1
REMARK minimizedAffinity -4.03258848
REMARK minimizedRMSD -1
REMARK  1 active torsions:
REMARK  status: ('A' for Active; 'I' for Inactive)
REMARK    1  A    between atoms: C3_4  and  O_7 
ROOT
ATOM      1  C   UNL d   1       0.527  -0.084   0.426  0.00  0.00    -0.033 A 
ATOM      2  C1  UNL d   1      -0.191   0.750  -0.434  0.00  0.00     0.039 A 
ATOM      3  C2  UNL d   1      -1.221   1.550   0.066  0.00  0.00    -0.080 A 
ATOM      4  C3  UNL d   1      -1.520   1.509   1.425  0.00  0.00     0.150 A 
ATOM      5  C4  UNL d   1      -0.806   0.684   2.287  0.00  0.00    -0.007 A 
ATOM      6  C5  UNL d   1       0.221  -0.116   1.787  0.00  0.00     0.039 A 
ENDROOT
BRANCH   4   7
ATOM      7  O   UNL d   1      -2.519   2.268   1.958  0.00  0.00    -0.526 OA
ATOM      8  H5  UNL d   1      -2.944   2.766   1.239  0.00  0.00     0.418 HD
ENDBRANCH   4   7
TORSDOF 1
ENDMDL
