MODEL 1
REMARK minimizedAffinity -4.28040981
REMARK minimizedRMSD -1
REMARK  1 active torsions:
REMARK  status: ('A' for Active; 'I' for Inactive)
REMARK    1  A    between atoms: C3_4  and  O_7 
ROOT
ATOM      1  C   UNL d   1       0.786   0.308  -0.709  0.00  0.00    -0.033 A 
ATOM      2  C1  UNL d   1       0.291  -0.369   0.407  0.00  0.00     0.039 A 
ATOM      3  C2  UNL d   1      -0.683   0.225   1.212  0.00  0.00    -0.080 A 
ATOM      4  C3  UNL d   1      -1.154   1.494   0.890  0.00  0.00     0.150 A 
ATOM      5  C4  UNL d   1      -0.669   2.174  -0.223  0.00  0.00    -0.007 A 
ATOM      6  C5  UNL d   1       0.305   1.579  -1.025  0.00  0.00     0.039 A 
ENDROOT
BRANCH   4   7
ATOM      7  O   UNL d   1      -2.101   2.117   1.648  0.00  0.00    -0.526 OA
ATOM      8  H5  UNL d   1      -2.321   1.541   2.399  0.00  0.00     0.418 HD
ENDBRANCH   4   7
TORSDOF 1
ENDMDL
