MODEL 1
REMARK minimizedAffinity -5.06553698
REMARK minimizedRMSD -1
REMARK  1 active torsions:
REMARK  status: ('A' for Active; 'I' for Inactive)
REMARK    1  A    between atoms: C3_4  and  O_7 
ROOT
ATOM      1  C   UNL d   1       0.630   0.115  -0.046  0.00  0.00    -0.033 A 
ATOM      2  C1  UNL d   1       0.491   1.303  -0.766  0.00  0.00     0.039 A 
ATOM      3  C2  UNL d   1      -0.466   2.245  -0.384  0.00  0.00    -0.080 A 
ATOM      4  C3  UNL d   1      -1.276   1.987   0.718  0.00  0.00     0.150 A 
ATOM      5  C4  UNL d   1      -1.141   0.808   1.443  0.00  0.00    -0.007 A 
ATOM      6  C5  UNL d   1      -0.185  -0.132   1.059  0.00  0.00     0.039 A 
ENDROOT
BRANCH   4   7
ATOM      7  O   UNL d   1      -2.228   2.874   1.126  0.00  0.00    -0.526 OA
ATOM      8  H5  UNL d   1      -2.227   3.630   0.514  0.00  0.00     0.418 HD
ENDBRANCH   4   7
TORSDOF 1
ENDMDL
