MODEL 1
REMARK minimizedAffinity -2.54638982
REMARK minimizedRMSD -1
REMARK  1 active torsions:
REMARK  status: ('A' for Active; 'I' for Inactive)
REMARK    1  A    between atoms: C3_4  and  O_7 
ROOT
ATOM      1  C   UNL d   1      -1.515   1.639   1.459  0.00  0.00    -0.033 A 
ATOM      2  C1  UNL d   1      -1.196   0.389   1.993  0.00  0.00     0.039 A 
ATOM      3  C2  UNL d   1      -0.516  -0.551   1.216  0.00  0.00    -0.080 A 
ATOM      4  C3  UNL d   1      -0.161  -0.229  -0.091  0.00  0.00     0.150 A 
ATOM      5  C4  UNL d   1      -0.472   1.016  -0.628  0.00  0.00    -0.007 A 
ATOM      6  C5  UNL d   1      -1.152   1.953   0.149  0.00  0.00     0.039 A 
ENDROOT
BRANCH   4   7
ATOM      7  O   UNL d   1       0.500  -1.115  -0.889  0.00  0.00    -0.526 OA
ATOM      8  H5  UNL d   1       0.622  -1.943  -0.394  0.00  0.00     0.418 HD
ENDBRANCH   4   7
TORSDOF 1
ENDMDL
