MODEL 1
REMARK minimizedAffinity -3.99859643
REMARK minimizedRMSD -1
REMARK  1 active torsions:
REMARK  status: ('A' for Active; 'I' for Inactive)
REMARK    1  A    between atoms: C3_4  and  O_7 
ROOT
ATOM      1  C   UNL d   1       0.500  -0.658   0.259  0.00  0.00    -0.033 A 
ATOM      2  C1  UNL d   1      -0.087   0.169  -0.701  0.00  0.00     0.039 A 
ATOM      3  C2  UNL d   1      -1.055   1.102  -0.323  0.00  0.00    -0.080 A 
ATOM      4  C3  UNL d   1      -1.426   1.198   1.015  0.00  0.00     0.150 A 
ATOM      5  C4  UNL d   1      -0.843   0.380   1.977  0.00  0.00    -0.007 A 
ATOM      6  C5  UNL d   1       0.123  -0.551   1.598  0.00  0.00     0.039 A 
ENDROOT
BRANCH   4   7
ATOM      7  O   UNL d   1      -2.370   2.090   1.430  0.00  0.00    -0.526 OA
ATOM      8  H5  UNL d   1      -2.705   2.567   0.653  0.00  0.00     0.418 HD
ENDBRANCH   4   7
TORSDOF 1
ENDMDL
