MODEL 1
REMARK minimizedAffinity -1.65531123
REMARK minimizedRMSD -1
REMARK  1 active torsions:
REMARK  status: ('A' for Active; 'I' for Inactive)
REMARK    1  A    between atoms: C3_4  and  O_7 
ROOT
ATOM      1  C   UNL d   1      -1.254   2.345  -1.282  0.00  0.00    -0.033 A 
ATOM      2  C1  UNL d   1       0.028   1.975  -1.694  0.00  0.00     0.039 A 
ATOM      3  C2  UNL d   1       0.698   0.935  -1.046  0.00  0.00    -0.080 A 
ATOM      4  C3  UNL d   1       0.077   0.274   0.010  0.00  0.00     0.150 A 
ATOM      5  C4  UNL d   1      -1.201   0.635   0.423  0.00  0.00    -0.007 A 
ATOM      6  C5  UNL d   1      -1.869   1.674  -0.225  0.00  0.00     0.039 A 
ENDROOT
BRANCH   4   7
ATOM      7  O   UNL d   1       0.694  -0.743   0.675  0.00  0.00    -0.526 OA
ATOM      8  H5  UNL d   1       1.582  -0.862   0.300  0.00  0.00     0.418 HD
ENDBRANCH   4   7
TORSDOF 1
ENDMDL
