MODEL 1
REMARK minimizedAffinity -4.11881113
REMARK minimizedRMSD -1
REMARK  1 active torsions:
REMARK  status: ('A' for Active; 'I' for Inactive)
REMARK    1  A    between atoms: C3_4  and  O_7 
ROOT
ATOM      1  C   UNL d   1       0.795  -0.954   0.836  0.00  0.00    -0.033 A 
ATOM      2  C1  UNL d   1       1.450  -0.546  -0.328  0.00  0.00     0.039 A 
ATOM      3  C2  UNL d   1       1.045   0.615  -0.989  0.00  0.00    -0.080 A 
ATOM      4  C3  UNL d   1      -0.014   1.359  -0.476  0.00  0.00     0.150 A 
ATOM      5  C4  UNL d   1      -0.669   0.961   0.685  0.00  0.00    -0.007 A 
ATOM      6  C5  UNL d   1      -0.264  -0.200   1.343  0.00  0.00     0.039 A 
ENDROOT
BRANCH   4   7
ATOM      7  O   UNL d   1      -0.448   2.497  -1.089  0.00  0.00    -0.526 OA
ATOM      8  H5  UNL d   1       0.079   2.633  -1.894  0.00  0.00     0.418 HD
ENDBRANCH   4   7
TORSDOF 1
ENDMDL
