MODEL 1
REMARK minimizedAffinity -3.09162688
REMARK minimizedRMSD -1
REMARK  1 active torsions:
REMARK  status: ('A' for Active; 'I' for Inactive)
REMARK    1  A    between atoms: C3_4  and  O_7 
ROOT
ATOM      1  C   UNL d   1       1.461  -3.274  -2.136  0.00  0.00    -0.033 A 
ATOM      2  C1  UNL d   1       0.873  -2.437  -3.086  0.00  0.00     0.039 A 
ATOM      3  C2  UNL d   1       0.491  -1.140  -2.735  0.00  0.00    -0.080 A 
ATOM      4  C3  UNL d   1       0.704  -0.693  -1.434  0.00  0.00     0.150 A 
ATOM      5  C4  UNL d   1       1.293  -1.521  -0.484  0.00  0.00    -0.007 A 
ATOM      6  C5  UNL d   1       1.673  -2.816  -0.835  0.00  0.00     0.039 A 
ENDROOT
BRANCH   4   7
ATOM      7  O   UNL d   1       0.344   0.562  -1.044  0.00  0.00    -0.526 OA
ATOM      8  H5  UNL d   1      -0.076   1.010  -1.797  0.00  0.00     0.418 HD
ENDBRANCH   4   7
TORSDOF 1
ENDMDL
