MODEL 1
REMARK minimizedAffinity -4.87543917
REMARK minimizedRMSD -1
REMARK  1 active torsions:
REMARK  status: ('A' for Active; 'I' for Inactive)
REMARK    1  A    between atoms: C3_4  and  O_7 
ROOT
ATOM      1  C   UNL d   1      -1.576   2.684   1.405  0.00  0.00    -0.033 A 
ATOM      2  C1  UNL d   1      -1.124   2.898   0.101  0.00  0.00     0.039 A 
ATOM      3  C2  UNL d   1      -0.533   1.854  -0.615  0.00  0.00    -0.080 A 
ATOM      4  C3  UNL d   1      -0.402   0.604  -0.016  0.00  0.00     0.150 A 
ATOM      5  C4  UNL d   1      -0.853   0.383   1.281  0.00  0.00    -0.007 A 
ATOM      6  C5  UNL d   1      -1.442   1.427   1.994  0.00  0.00     0.039 A 
ENDROOT
BRANCH   4   7
ATOM      7  O   UNL d   1       0.172  -0.443  -0.674  0.00  0.00    -0.526 OA
ATOM      8  H5  UNL d   1       0.462  -0.136  -1.549  0.00  0.00     0.418 HD
ENDBRANCH   4   7
TORSDOF 1
ENDMDL
