MODEL 1
REMARK minimizedAffinity -4.06120157
REMARK minimizedRMSD -1
REMARK  1 active torsions:
REMARK  status: ('A' for Active; 'I' for Inactive)
REMARK    1  A    between atoms: C3_4  and  O_7 
ROOT
ATOM      1  C   UNL d   1       1.260  -0.868  -0.026  0.00  0.00    -0.033 A 
ATOM      2  C1  UNL d   1       0.637   0.123  -0.787  0.00  0.00     0.039 A 
ATOM      3  C2  UNL d   1      -0.354   0.924  -0.218  0.00  0.00    -0.080 A 
ATOM      4  C3  UNL d   1      -0.712   0.726   1.113  0.00  0.00     0.150 A 
ATOM      5  C4  UNL d   1      -0.094  -0.257   1.878  0.00  0.00    -0.007 A 
ATOM      6  C5  UNL d   1       0.896  -1.057   1.308  0.00  0.00     0.039 A 
ENDROOT
BRANCH   4   7
ATOM      7  O   UNL d   1      -1.678   1.480   1.711  0.00  0.00    -0.526 OA
ATOM      8  H5  UNL d   1      -2.037   2.098   1.053  0.00  0.00     0.418 HD
ENDBRANCH   4   7
TORSDOF 1
ENDMDL
