MODEL 1
REMARK minimizedAffinity -4.45830727
REMARK minimizedRMSD -1
REMARK  1 active torsions:
REMARK  status: ('A' for Active; 'I' for Inactive)
REMARK    1  A    between atoms: C3_4  and  O_7 
ROOT
ATOM      1  C   UNL d   1      -0.952   0.154  -0.047  0.00  0.00    -0.033 A 
ATOM      2  C1  UNL d   1      -0.316  -0.630   0.918  0.00  0.00     0.039 A 
ATOM      3  C2  UNL d   1      -0.146  -0.143   2.215  0.00  0.00    -0.080 A 
ATOM      4  C3  UNL d   1      -0.618   1.127   2.535  0.00  0.00     0.150 A 
ATOM      5  C4  UNL d   1      -1.256   1.912   1.581  0.00  0.00    -0.007 A 
ATOM      6  C5  UNL d   1      -1.424   1.424   0.285  0.00  0.00     0.039 A 
ENDROOT
BRANCH   4   7
ATOM      7  O   UNL d   1      -0.471   1.647   3.787  0.00  0.00    -0.526 OA
ATOM      8  H5  UNL d   1       0.014   1.005   4.332  0.00  0.00     0.418 HD
ENDBRANCH   4   7
TORSDOF 1
ENDMDL
