MODEL 1
REMARK minimizedAffinity -4.54625368
REMARK minimizedRMSD -1
REMARK  1 active torsions:
REMARK  status: ('A' for Active; 'I' for Inactive)
REMARK    1  A    between atoms: C3_4  and  O_7 
ROOT
ATOM      1  C   UNL d   1       0.281  -0.010   0.263  0.00  0.00    -0.033 A 
ATOM      2  C1  UNL d   1      -0.126  -0.101   1.595  0.00  0.00     0.039 A 
ATOM      3  C2  UNL d   1      -1.202   0.662   2.052  0.00  0.00    -0.080 A 
ATOM      4  C3  UNL d   1      -1.862   1.511   1.167  0.00  0.00     0.150 A 
ATOM      5  C4  UNL d   1      -1.464   1.604  -0.162  0.00  0.00    -0.007 A 
ATOM      6  C5  UNL d   1      -0.389   0.842  -0.616  0.00  0.00     0.039 A 
ENDROOT
BRANCH   4   7
ATOM      7  O   UNL d   1      -2.914   2.280   1.568  0.00  0.00    -0.526 OA
ATOM      8  H5  UNL d   1      -3.058   2.133   2.518  0.00  0.00     0.418 HD
ENDBRANCH   4   7
TORSDOF 1
ENDMDL
