MODEL 1
REMARK minimizedAffinity -3.58073473
REMARK minimizedRMSD -1
REMARK  1 active torsions:
REMARK  status: ('A' for Active; 'I' for Inactive)
REMARK    1  A    between atoms: C3_4  and  O_7 
ROOT
ATOM      1  C   UNL d   1       0.518  -0.325   0.238  0.00  0.00    -0.033 A 
ATOM      2  C1  UNL d   1       0.464   0.060   1.579  0.00  0.00     0.039 A 
ATOM      3  C2  UNL d   1      -0.503   0.971   2.008  0.00  0.00    -0.080 A 
ATOM      4  C3  UNL d   1      -1.411   1.487   1.087  0.00  0.00     0.150 A 
ATOM      5  C4  UNL d   1      -1.366   1.105  -0.249  0.00  0.00    -0.007 A 
ATOM      6  C5  UNL d   1      -0.398   0.196  -0.676  0.00  0.00     0.039 A 
ENDROOT
BRANCH   4   7
ATOM      7  O   UNL d   1      -2.370   2.382   1.458  0.00  0.00    -0.526 OA
ATOM      8  H5  UNL d   1      -2.262   2.575   2.404  0.00  0.00     0.418 HD
ENDBRANCH   4   7
TORSDOF 1
ENDMDL
