MODEL 1
REMARK minimizedAffinity -4.74752855
REMARK minimizedRMSD -1
REMARK  1 active torsions:
REMARK  status: ('A' for Active; 'I' for Inactive)
REMARK    1  A    between atoms: C3_4  and  O_7 
ROOT
ATOM      1  C   UNL d   1      -0.059  -0.022   0.138  0.00  0.00    -0.033 A 
ATOM      2  C1  UNL d   1       0.021   0.362   1.478  0.00  0.00     0.039 A 
ATOM      3  C2  UNL d   1      -0.828   1.354   1.973  0.00  0.00    -0.080 A 
ATOM      4  C3  UNL d   1      -1.753   1.951   1.121  0.00  0.00     0.150 A 
ATOM      5  C4  UNL d   1      -1.840   1.570  -0.214  0.00  0.00    -0.007 A 
ATOM      6  C5  UNL d   1      -0.991   0.581  -0.708  0.00  0.00     0.039 A 
ENDROOT
BRANCH   4   7
ATOM      7  O   UNL d   1      -2.599   2.926   1.558  0.00  0.00    -0.526 OA
ATOM      8  H5  UNL d   1      -2.405   3.106   2.493  0.00  0.00     0.418 HD
ENDBRANCH   4   7
TORSDOF 1
ENDMDL
