MODEL 1
REMARK minimizedAffinity -4.27958393
REMARK minimizedRMSD -1
REMARK  1 active torsions:
REMARK  status: ('A' for Active; 'I' for Inactive)
REMARK    1  A    between atoms: C3_4  and  O_7 
ROOT
ATOM      1  C   UNL d   1      -0.634   0.259   0.297  0.00  0.00    -0.033 A 
ATOM      2  C1  UNL d   1      -1.076   1.429  -0.324  0.00  0.00     0.039 A 
ATOM      3  C2  UNL d   1      -0.208   2.163  -1.134  0.00  0.00    -0.080 A 
ATOM      4  C3  UNL d   1       1.098   1.716  -1.316  0.00  0.00     0.150 A 
ATOM      5  C4  UNL d   1       1.545   0.550  -0.704  0.00  0.00    -0.007 A 
ATOM      6  C5  UNL d   1       0.676  -0.181   0.105  0.00  0.00     0.039 A 
ENDROOT
BRANCH   4   7
ATOM      7  O   UNL d   1       1.984   2.401  -2.094  0.00  0.00    -0.526 OA
ATOM      8  H5  UNL d   1       1.545   3.201  -2.429  0.00  0.00     0.418 HD
ENDBRANCH   4   7
TORSDOF 1
ENDMDL
