MODEL 1
REMARK minimizedAffinity -2.71953654
REMARK minimizedRMSD -1
REMARK  1 active torsions:
REMARK  status: ('A' for Active; 'I' for Inactive)
REMARK    1  A    between atoms: C3_4  and  O_7 
ROOT
ATOM      1  C   UNL d   1      -0.758  -0.597   0.370  0.00  0.00    -0.033 A 
ATOM      2  C1  UNL d   1       0.481  -1.030  -0.108  0.00  0.00     0.039 A 
ATOM      3  C2  UNL d   1       1.269  -0.176  -0.882  0.00  0.00    -0.080 A 
ATOM      4  C3  UNL d   1       0.809   1.106  -1.170  0.00  0.00     0.150 A 
ATOM      5  C4  UNL d   1      -0.422   1.545  -0.694  0.00  0.00    -0.007 A 
ATOM      6  C5  UNL d   1      -1.209   0.690   0.078  0.00  0.00     0.039 A 
ENDROOT
BRANCH   4   7
ATOM      7  O   UNL d   1       1.541   1.973  -1.925  0.00  0.00    -0.526 OA
ATOM      8  H5  UNL d   1       2.355   1.523  -2.208  0.00  0.00     0.418 HD
ENDBRANCH   4   7
TORSDOF 1
ENDMDL
