MODEL 1
REMARK minimizedAffinity 3.28339648
REMARK minimizedRMSD -1
REMARK  1 active torsions:
REMARK  status: ('A' for Active; 'I' for Inactive)
REMARK    1  A    between atoms: C1_2  and  C2_3 
ROOT
ATOM      1  C2  UNL d   1       0.467   1.368  -2.233  0.00  0.00    -0.081 A 
ATOM      2  C3  UNL d   1      -0.154   2.481  -2.811  0.00  0.00     0.006 A 
ATOM      3  C4  UNL d   1       0.308   2.999  -4.023  0.00  0.00     0.002 A 
ATOM      4  C5  UNL d   1       1.393   2.409  -4.680  0.00  0.00    -0.080 A 
ATOM      5  C6  UNL d   1       1.879   2.937  -5.997  0.00  0.00     0.076 C 
ATOM      6  C7  UNL d   1       2.025   1.307  -4.094  0.00  0.00     0.002 A 
ATOM      7  C8  UNL d   1       1.564   0.789  -2.882  0.00  0.00     0.006 A 
ENDROOT
BRANCH   1   8
ATOM      8  C1  UNL d   1      -0.069   0.767  -0.958  0.00  0.00     0.054 C 
ATOM      9  C   UNL d   1      -0.367  -0.716  -1.128  0.00  0.00     0.018 C 
ENDBRANCH   1   8
TORSDOF 1
ENDMDL
