MODEL 1
REMARK minimizedAffinity -0.567500114
REMARK minimizedRMSD -1
REMARK  1 active torsions:
REMARK  status: ('A' for Active; 'I' for Inactive)
REMARK    1  A    between atoms: C1_2  and  C2_3 
ROOT
ATOM      1  C2  UNL d   1      -0.705   0.046   2.282  0.00  0.00    -0.081 A 
ATOM      2  C3  UNL d   1       0.034   1.042   1.632  0.00  0.00     0.006 A 
ATOM      3  C4  UNL d   1       1.431   1.001   1.631  0.00  0.00     0.002 A 
ATOM      4  C5  UNL d   1       2.110  -0.040   2.272  0.00  0.00    -0.080 A 
ATOM      5  C6  UNL d   1       3.608  -0.113   2.252  0.00  0.00     0.076 C 
ATOM      6  C7  UNL d   1       1.372  -1.026   2.937  0.00  0.00     0.002 A 
ATOM      7  C8  UNL d   1      -0.024  -0.984   2.939  0.00  0.00     0.006 A 
ENDROOT
BRANCH   1   8
ATOM      8  C1  UNL d   1      -2.211   0.053   2.230  0.00  0.00     0.054 C 
ATOM      9  C   UNL d   1      -2.807  -0.818   3.327  0.00  0.00     0.018 C 
ENDBRANCH   1   8
TORSDOF 1
ENDMDL
