MODEL 1
REMARK minimizedAffinity 0.139252946
REMARK minimizedRMSD -1
REMARK  1 active torsions:
REMARK  status: ('A' for Active; 'I' for Inactive)
REMARK    1  A    between atoms: C1_2  and  C2_3 
ROOT
ATOM      1  C2  UNL d   1      -1.678   0.460   1.692  0.00  0.00    -0.081 A 
ATOM      2  C3  UNL d   1      -0.710   0.887   0.775  0.00  0.00     0.006 A 
ATOM      3  C4  UNL d   1       0.648   0.704   1.042  0.00  0.00     0.002 A 
ATOM      4  C5  UNL d   1       1.062   0.083   2.225  0.00  0.00    -0.080 A 
ATOM      5  C6  UNL d   1       2.516  -0.147   2.510  0.00  0.00     0.076 C 
ATOM      6  C7  UNL d   1       0.096  -0.328   3.150  0.00  0.00     0.002 A 
ATOM      7  C8  UNL d   1      -1.263  -0.144   2.884  0.00  0.00     0.006 A 
ENDROOT
BRANCH   1   8
ATOM      8  C1  UNL d   1      -3.146   0.598   1.379  0.00  0.00     0.054 C 
ATOM      9  C   UNL d   1      -3.963   0.821   2.643  0.00  0.00     0.018 C 
ENDBRANCH   1   8
TORSDOF 1
ENDMDL
