MODEL 1
REMARK minimizedAffinity 7.41883898
REMARK minimizedRMSD -1
REMARK  1 active torsions:
REMARK  status: ('A' for Active; 'I' for Inactive)
REMARK    1  A    between atoms: C1_2  and  C2_3 
ROOT
ATOM      1  C2  UNL d   1      -1.086  -0.749   1.055  0.00  0.00    -0.081 A 
ATOM      2  C3  UNL d   1      -0.648  -2.071   0.904  0.00  0.00     0.006 A 
ATOM      3  C4  UNL d   1      -0.706  -2.697  -0.343  0.00  0.00     0.002 A 
ATOM      4  C5  UNL d   1      -1.195  -2.012  -1.460  0.00  0.00    -0.080 A 
ATOM      5  C6  UNL d   1      -1.234  -2.663  -2.811  0.00  0.00     0.076 C 
ATOM      6  C7  UNL d   1      -1.649  -0.697  -1.305  0.00  0.00     0.002 A 
ATOM      7  C8  UNL d   1      -1.592  -0.070  -0.059  0.00  0.00     0.006 A 
ENDROOT
BRANCH   1   8
ATOM      8  C1  UNL d   1      -0.964  -0.049   2.385  0.00  0.00     0.054 C 
ATOM      9  C   UNL d   1       0.458  -0.123   2.921  0.00  0.00     0.018 C 
ENDBRANCH   1   8
TORSDOF 1
ENDMDL
