MODEL 1
REMARK minimizedAffinity 3.4433167
REMARK minimizedRMSD -1
REMARK  1 active torsions:
REMARK  status: ('A' for Active; 'I' for Inactive)
REMARK    1  A    between atoms: C1_2  and  C2_3 
ROOT
ATOM      1  C2  UNL d   1      -2.083   0.329   2.198  0.00  0.00    -0.081 A 
ATOM      2  C3  UNL d   1      -1.642  -0.340   3.346  0.00  0.00     0.006 A 
ATOM      3  C4  UNL d   1      -0.289  -0.646   3.512  0.00  0.00     0.002 A 
ATOM      4  C5  UNL d   1       0.646  -0.281   2.536  0.00  0.00    -0.080 A 
ATOM      5  C6  UNL d   1       2.105  -0.577   2.715  0.00  0.00     0.076 C 
ATOM      6  C7  UNL d   1       0.202   0.372   1.381  0.00  0.00     0.002 A 
ATOM      7  C8  UNL d   1      -1.150   0.677   1.215  0.00  0.00     0.006 A 
ENDROOT
BRANCH   1   8
ATOM      8  C1  UNL d   1      -3.532   0.718   2.047  0.00  0.00     0.054 C 
ATOM      9  C   UNL d   1      -3.761   2.166   2.456  0.00  0.00     0.018 C 
ENDBRANCH   1   8
TORSDOF 1
ENDMDL
