MODEL 1
REMARK minimizedAffinity 7.26075363
REMARK minimizedRMSD -1
REMARK  1 active torsions:
REMARK  status: ('A' for Active; 'I' for Inactive)
REMARK    1  A    between atoms: C1_2  and  C2_3 
ROOT
ATOM      1  C2  UNL d   1       5.925  -1.920   3.727  0.00  0.00    -0.081 A 
ATOM      2  C3  UNL d   1       5.859  -1.555   2.376  0.00  0.00     0.006 A 
ATOM      3  C4  UNL d   1       5.869  -0.209   2.005  0.00  0.00     0.002 A 
ATOM      4  C5  UNL d   1       5.952   0.795   2.976  0.00  0.00    -0.080 A 
ATOM      5  C6  UNL d   1       5.994   2.243   2.589  0.00  0.00     0.076 C 
ATOM      6  C7  UNL d   1       6.000   0.431   4.326  0.00  0.00     0.002 A 
ATOM      7  C8  UNL d   1       5.990  -0.915   4.698  0.00  0.00     0.006 A 
ENDROOT
BRANCH   1   8
ATOM      8  C1  UNL d   1       5.980  -3.372   4.127  0.00  0.00     0.054 C 
ATOM      9  C   UNL d   1       5.917  -3.532   5.639  0.00  0.00     0.018 C 
ENDBRANCH   1   8
TORSDOF 1
ENDMDL
