MODEL 1
REMARK minimizedAffinity 6.78428555
REMARK minimizedRMSD -1
REMARK  1 active torsions:
REMARK  status: ('A' for Active; 'I' for Inactive)
REMARK    1  A    between atoms: C1_2  and  C2_3 
ROOT
ATOM      1  C2  UNL d   1       2.061   0.178   2.554  0.00  0.00    -0.081 A 
ATOM      2  C3  UNL d   1       1.191  -0.547   3.377  0.00  0.00     0.006 A 
ATOM      3  C4  UNL d   1      -0.145  -0.161   3.508  0.00  0.00     0.002 A 
ATOM      4  C5  UNL d   1      -0.635   0.949   2.813  0.00  0.00    -0.080 A 
ATOM      5  C6  UNL d   1      -2.075   1.356   2.921  0.00  0.00     0.076 C 
ATOM      6  C7  UNL d   1       0.239   1.684   2.004  0.00  0.00     0.002 A 
ATOM      7  C8  UNL d   1       1.575   1.299   1.873  0.00  0.00     0.006 A 
ENDROOT
BRANCH   1   8
ATOM      8  C1  UNL d   1       3.487  -0.274   2.360  0.00  0.00     0.054 C 
ATOM      9  C   UNL d   1       4.243   0.667   1.433  0.00  0.00     0.018 C 
ENDBRANCH   1   8
TORSDOF 1
ENDMDL
