MODEL 1
REMARK minimizedAffinity 6.38495731
REMARK minimizedRMSD -1
REMARK  1 active torsions:
REMARK  status: ('A' for Active; 'I' for Inactive)
REMARK    1  A    between atoms: C1_2  and  C2_3 
ROOT
ATOM      1  C2  UNL d   1      -1.239  -0.125  -0.373  0.00  0.00    -0.081 A 
ATOM      2  C3  UNL d   1      -2.618   0.111  -0.436  0.00  0.00     0.006 A 
ATOM      3  C4  UNL d   1      -3.323   0.497   0.706  0.00  0.00     0.002 A 
ATOM      4  C5  UNL d   1      -2.662   0.662   1.927  0.00  0.00    -0.080 A 
ATOM      5  C6  UNL d   1      -3.402   1.106   3.154  0.00  0.00     0.076 C 
ATOM      6  C7  UNL d   1      -1.287   0.409   1.995  0.00  0.00     0.002 A 
ATOM      7  C8  UNL d   1      -0.581   0.022   0.853  0.00  0.00     0.006 A 
ENDROOT
BRANCH   1   8
ATOM      8  C1  UNL d   1      -0.464  -0.480  -1.616  0.00  0.00     0.054 C 
ATOM      9  C   UNL d   1      -0.528  -1.973  -1.901  0.00  0.00     0.018 C 
ENDBRANCH   1   8
TORSDOF 1
ENDMDL
