MODEL 1
REMARK minimizedAffinity 9.17541695
REMARK minimizedRMSD -1
REMARK  1 active torsions:
REMARK  status: ('A' for Active; 'I' for Inactive)
REMARK    1  A    between atoms: C1_2  and  C2_3 
ROOT
ATOM      1  C2  UNL d   1       1.957   4.005  -3.445  0.00  0.00    -0.081 A 
ATOM      2  C3  UNL d   1       2.427   2.725  -3.126  0.00  0.00     0.006 A 
ATOM      3  C4  UNL d   1       3.730   2.345  -3.457  0.00  0.00     0.002 A 
ATOM      4  C5  UNL d   1       4.587   3.241  -4.105  0.00  0.00    -0.080 A 
ATOM      5  C6  UNL d   1       5.998   2.857  -4.438  0.00  0.00     0.076 C 
ATOM      6  C7  UNL d   1       4.113   4.514  -4.439  0.00  0.00     0.002 A 
ATOM      7  C8  UNL d   1       2.810   4.894  -4.109  0.00  0.00     0.006 A 
ENDROOT
BRANCH   1   8
ATOM      8  C1  UNL d   1       0.574   4.439  -3.032  0.00  0.00     0.054 C 
ATOM      9  C   UNL d   1      -0.213   4.981  -4.217  0.00  0.00     0.018 C 
ENDBRANCH   1   8
TORSDOF 1
ENDMDL
