MODEL 1
REMARK minimizedAffinity 10.6959486
REMARK minimizedRMSD -1
REMARK  1 active torsions:
REMARK  status: ('A' for Active; 'I' for Inactive)
REMARK    1  A    between atoms: C1_2  and  C2_3 
ROOT
ATOM      1  C2  UNL d   1      -3.722  -1.512  -0.095  0.00  0.00    -0.081 A 
ATOM      2  C3  UNL d   1      -3.123  -0.389  -0.679  0.00  0.00     0.006 A 
ATOM      3  C4  UNL d   1      -1.975  -0.525  -1.463  0.00  0.00     0.002 A 
ATOM      4  C5  UNL d   1      -1.412  -1.787  -1.683  0.00  0.00    -0.080 A 
ATOM      5  C6  UNL d   1      -0.197  -1.951  -2.547  0.00  0.00     0.076 C 
ATOM      6  C7  UNL d   1      -2.000  -2.907  -1.086  0.00  0.00     0.002 A 
ATOM      7  C8  UNL d   1      -3.147  -2.771  -0.301  0.00  0.00     0.006 A 
ENDROOT
BRANCH   1   8
ATOM      8  C1  UNL d   1      -4.997  -1.376   0.697  0.00  0.00     0.054 C 
ATOM      9  C   UNL d   1      -5.501  -2.732   1.171  0.00  0.00     0.018 C 
ENDBRANCH   1   8
TORSDOF 1
ENDMDL
