MODEL 1
REMARK minimizedAffinity 4.36547041
REMARK minimizedRMSD -1
REMARK  1 active torsions:
REMARK  status: ('A' for Active; 'I' for Inactive)
REMARK    1  A    between atoms: C1_2  and  C2_3 
ROOT
ATOM      1  C2  UNL d   1      -3.277   0.694   2.036  0.00  0.00    -0.081 A 
ATOM      2  C3  UNL d   1      -2.820   0.505   3.345  0.00  0.00     0.006 A 
ATOM      3  C4  UNL d   1      -1.534   0.014   3.582  0.00  0.00     0.002 A 
ATOM      4  C5  UNL d   1      -0.681  -0.289   2.515  0.00  0.00    -0.080 A 
ATOM      5  C6  UNL d   1       0.712  -0.788   2.756  0.00  0.00     0.076 C 
ATOM      6  C7  UNL d   1      -1.144  -0.116   1.206  0.00  0.00     0.002 A 
ATOM      7  C8  UNL d   1      -2.430   0.375   0.969  0.00  0.00     0.006 A 
ENDROOT
BRANCH   1   8
ATOM      8  C1  UNL d   1      -4.640   1.285   1.777  0.00  0.00     0.054 C 
ATOM      9  C   UNL d   1      -4.865   2.541   2.607  0.00  0.00     0.018 C 
ENDBRANCH   1   8
TORSDOF 1
ENDMDL
