MODEL 1
REMARK minimizedAffinity 0.920791805
REMARK minimizedRMSD -1
REMARK  3 active torsions:
REMARK  status: ('A' for Active; 'I' for Inactive)
REMARK    1  A    between atoms: C3'_2  and  C2'_3 
REMARK    2  A    between atoms: C2'_3  and  C1'_4 
REMARK    3  A    between atoms: C1'_4  and  C1_5 
ROOT
ATOM      1  C1  N4B d   1      -0.619  -0.639  -1.508  0.00  0.00    -0.075 A 
ATOM      2  C2  N4B d   1      -1.863  -1.040  -0.975  0.00  0.00     0.002 A 
ATOM      3  C3  N4B d   1      -2.213  -0.673   0.302  0.00  0.00     0.002 A 
ATOM      4  C4  N4B d   1      -1.330   0.074   1.067  0.00  0.00    -0.004 A 
ATOM      5  C5  N4B d   1      -0.140   0.478   0.535  0.00  0.00     0.002 A 
ATOM      6  C6  N4B d   1       0.222   0.120  -0.748  0.00  0.00     0.002 A 
ENDROOT
BRANCH   1   7
ATOM      7  C1' N4B d   1      -0.156  -1.088  -2.868  0.00  0.00     0.057 C 
BRANCH   7   8
ATOM      8  C2' N4B d   1       1.302  -1.528  -2.781  0.00  0.00     0.009 C 
BRANCH   8   9
ATOM      9  C3' N4B d   1       1.754  -2.249  -4.039  0.00  0.00     0.004 C 
ATOM     10  C4' N4B d   1       0.711  -3.180  -4.581  0.00  0.00     0.003 C 
ENDBRANCH   8   9
ENDBRANCH   7   8
ENDBRANCH   1   7
TORSDOF 3
ENDMDL
