MODEL 1
REMARK minimizedAffinity -4.31227684
REMARK minimizedRMSD -1
REMARK  3 active torsions:
REMARK  status: ('A' for Active; 'I' for Inactive)
REMARK    1  A    between atoms: C3'_2  and  C2'_3 
REMARK    2  A    between atoms: C2'_3  and  C1'_4 
REMARK    3  A    between atoms: C1'_4  and  C1_5 
ROOT
ATOM      1  C1  N4B d   1       0.276  -0.204   0.866  0.00  0.00    -0.075 A 
ATOM      2  C2  N4B d   1       1.042   0.912   1.269  0.00  0.00     0.002 A 
ATOM      3  C3  N4B d   1       1.146   1.228   2.601  0.00  0.00     0.002 A 
ATOM      4  C4  N4B d   1       0.482   0.457   3.543  0.00  0.00    -0.004 A 
ATOM      5  C5  N4B d   1      -0.235  -0.634   3.148  0.00  0.00     0.002 A 
ATOM      6  C6  N4B d   1      -0.345  -0.966   1.813  0.00  0.00     0.002 A 
ENDROOT
BRANCH   1   7
ATOM      7  C1' N4B d   1       0.062  -0.539  -0.585  0.00  0.00     0.057 C 
BRANCH   7   8
ATOM      8  C2' N4B d   1      -0.009   0.754  -1.391  0.00  0.00     0.009 C 
BRANCH   8   9
ATOM      9  C3' N4B d   1       0.744   0.646  -2.706  0.00  0.00     0.004 C 
ATOM     10  C4' N4B d   1       0.859  -0.767  -3.195  0.00  0.00     0.003 C 
ENDBRANCH   8   9
ENDBRANCH   7   8
ENDBRANCH   1   7
TORSDOF 3
ENDMDL
