MODEL 1
REMARK minimizedAffinity -3.979038
REMARK minimizedRMSD -1
REMARK  3 active torsions:
REMARK  status: ('A' for Active; 'I' for Inactive)
REMARK    1  A    between atoms: C3'_2  and  C2'_3 
REMARK    2  A    between atoms: C2'_3  and  C1'_4 
REMARK    3  A    between atoms: C1'_4  and  C1_5 
ROOT
ATOM      1  C1  N4B d   1       0.098   0.399   0.955  0.00  0.00    -0.075 A 
ATOM      2  C2  N4B d   1       0.366   0.977   2.216  0.00  0.00     0.002 A 
ATOM      3  C3  N4B d   1      -0.183   0.434   3.351  0.00  0.00     0.002 A 
ATOM      4  C4  N4B d   1      -1.015  -0.671   3.249  0.00  0.00    -0.004 A 
ATOM      5  C5  N4B d   1      -1.249  -1.239   2.031  0.00  0.00     0.002 A 
ATOM      6  C6  N4B d   1      -0.700  -0.706   0.882  0.00  0.00     0.002 A 
ENDROOT
BRANCH   1   7
ATOM      7  C1' N4B d   1       0.606   1.009  -0.322  0.00  0.00     0.057 C 
BRANCH   7   8
ATOM      8  C2' N4B d   1       0.122   0.174  -1.504  0.00  0.00     0.009 C 
BRANCH   8   9
ATOM      9  C3' N4B d   1       1.278  -0.382  -2.318  0.00  0.00     0.004 C 
ATOM     10  C4' N4B d   1       1.333  -1.881  -2.300  0.00  0.00     0.003 C 
ENDBRANCH   8   9
ENDBRANCH   7   8
ENDBRANCH   1   7
TORSDOF 3
ENDMDL
