MODEL 1
REMARK minimizedAffinity -2.4286201
REMARK minimizedRMSD -1
REMARK  3 active torsions:
REMARK  status: ('A' for Active; 'I' for Inactive)
REMARK    1  A    between atoms: C3'_2  and  C2'_3 
REMARK    2  A    between atoms: C2'_3  and  C1'_4 
REMARK    3  A    between atoms: C1'_4  and  C1_5 
ROOT
ATOM      1  C1  N4B d   1      -0.457  -0.036   0.991  0.00  0.00    -0.075 A 
ATOM      2  C2  N4B d   1      -1.749  -0.580   1.162  0.00  0.00     0.002 A 
ATOM      3  C3  N4B d   1      -2.790  -0.134   0.385  0.00  0.00     0.002 A 
ATOM      4  C4  N4B d   1      -2.568   0.864  -0.552  0.00  0.00    -0.004 A 
ATOM      5  C5  N4B d   1      -1.312   1.366  -0.729  0.00  0.00     0.002 A 
ATOM      6  C6  N4B d   1      -0.256   0.925   0.042  0.00  0.00     0.002 A 
ENDROOT
BRANCH   1   7
ATOM      7  C1' N4B d   1       0.694  -0.430   1.876  0.00  0.00     0.057 C 
BRANCH   7   8
ATOM      8  C2' N4B d   1       1.262   0.818   2.544  0.00  0.00     0.009 C 
BRANCH   8   9
ATOM      9  C3' N4B d   1       2.414   1.413   1.752  0.00  0.00     0.004 C 
ATOM     10  C4' N4B d   1       3.756   1.024   2.298  0.00  0.00     0.003 C 
ENDBRANCH   8   9
ENDBRANCH   7   8
ENDBRANCH   1   7
TORSDOF 3
ENDMDL
