MODEL 1
REMARK minimizedAffinity -2.90788031
REMARK minimizedRMSD -1
REMARK  3 active torsions:
REMARK  status: ('A' for Active; 'I' for Inactive)
REMARK    1  A    between atoms: C3'_2  and  C2'_3 
REMARK    2  A    between atoms: C2'_3  and  C1'_4 
REMARK    3  A    between atoms: C1'_4  and  C1_5 
ROOT
ATOM      1  C1  N4B d   1       0.752   0.303   0.384  0.00  0.00    -0.075 A 
ATOM      2  C2  N4B d   1       1.747   0.476   1.371  0.00  0.00     0.002 A 
ATOM      3  C3  N4B d   1       1.412   0.414   2.701  0.00  0.00     0.002 A 
ATOM      4  C4  N4B d   1       0.091   0.201   3.067  0.00  0.00    -0.004 A 
ATOM      5  C5  N4B d   1      -0.860   0.010   2.107  0.00  0.00     0.002 A 
ATOM      6  C6  N4B d   1      -0.537   0.065   0.766  0.00  0.00     0.002 A 
ENDROOT
BRANCH   1   7
ATOM      7  C1' N4B d   1       1.054   0.447  -1.083  0.00  0.00     0.057 C 
BRANCH   7   8
ATOM      8  C2' N4B d   1       0.430  -0.721  -1.840  0.00  0.00     0.009 C 
BRANCH   8   9
ATOM      9  C3' N4B d   1       1.209  -1.064  -3.098  0.00  0.00     0.004 C 
ATOM     10  C4' N4B d   1       0.737  -2.331  -3.747  0.00  0.00     0.003 C 
ENDBRANCH   8   9
ENDBRANCH   7   8
ENDBRANCH   1   7
TORSDOF 3
ENDMDL
