MODEL 1
REMARK minimizedAffinity 13.6306581
REMARK minimizedRMSD -1
REMARK  1 active torsions:
REMARK  status: ('A' for Active; 'I' for Inactive)
REMARK    1  A    between atoms: C1_2  and  C2_3 
ROOT
ATOM      1  C2  UNL d   1      -2.943   4.833  -0.616  0.00  0.00    -0.081 A 
ATOM      2  C3  UNL d   1      -2.018   3.800  -0.419  0.00  0.00     0.006 A 
ATOM      3  C4  UNL d   1      -1.545   3.057  -1.504  0.00  0.00     0.002 A 
ATOM      4  C5  UNL d   1      -1.984   3.338  -2.802  0.00  0.00    -0.080 A 
ATOM      5  C6  UNL d   1      -1.461   2.567  -3.978  0.00  0.00     0.076 C 
ATOM      6  C7  UNL d   1      -2.921   4.358  -2.996  0.00  0.00     0.002 A 
ATOM      7  C8  UNL d   1      -3.394   5.101  -1.913  0.00  0.00     0.006 A 
ENDROOT
BRANCH   1   8
ATOM      8  C1  UNL d   1      -3.405   5.679   0.543  0.00  0.00     0.054 C 
ATOM      9  C   UNL d   1      -4.889   6.000   0.436  0.00  0.00     0.018 C 
ENDBRANCH   1   8
TORSDOF 1
ENDMDL
