MODEL 1
REMARK minimizedAffinity 13.9922409
REMARK minimizedRMSD -1
REMARK  1 active torsions:
REMARK  status: ('A' for Active; 'I' for Inactive)
REMARK    1  A    between atoms: C1_2  and  C2_3 
ROOT
ATOM      1  C2  UNL d   1      -4.442   5.459  -0.971  0.00  0.00    -0.081 A 
ATOM      2  C3  UNL d   1      -5.723   5.829  -0.542  0.00  0.00     0.006 A 
ATOM      3  C4  UNL d   1      -5.994   5.992   0.818  0.00  0.00     0.002 A 
ATOM      4  C5  UNL d   1      -4.989   5.796   1.771  0.00  0.00    -0.080 A 
ATOM      5  C6  UNL d   1      -5.260   5.998   3.233  0.00  0.00     0.076 C 
ATOM      6  C7  UNL d   1      -3.714   5.410   1.344  0.00  0.00     0.002 A 
ATOM      7  C8  UNL d   1      -3.442   5.246  -0.016  0.00  0.00     0.006 A 
ENDROOT
BRANCH   1   8
ATOM      8  C1  UNL d   1      -4.129   5.345  -2.441  0.00  0.00     0.054 C 
ATOM      9  C   UNL d   1      -3.776   3.915  -2.822  0.00  0.00     0.018 C 
ENDBRANCH   1   8
TORSDOF 1
ENDMDL
