MODEL 1
REMARK minimizedAffinity 18.006031
REMARK minimizedRMSD -1
REMARK  1 active torsions:
REMARK  status: ('A' for Active; 'I' for Inactive)
REMARK    1  A    between atoms: C1_2  and  C2_3 
ROOT
ATOM      1  C2  UNL d   1       0.564   4.552  -3.124  0.00  0.00    -0.081 A 
ATOM      2  C3  UNL d   1      -0.761   4.105  -3.189  0.00  0.00     0.006 A 
ATOM      3  C4  UNL d   1      -1.281   3.282  -2.187  0.00  0.00     0.002 A 
ATOM      4  C5  UNL d   1      -0.487   2.899  -1.100  0.00  0.00    -0.080 A 
ATOM      5  C6  UNL d   1      -1.041   2.041  -0.002  0.00  0.00     0.076 C 
ATOM      6  C7  UNL d   1       0.842   3.332  -1.044  0.00  0.00     0.002 A 
ATOM      7  C8  UNL d   1       1.362   4.155  -2.046  0.00  0.00     0.006 A 
ENDROOT
BRANCH   1   8
ATOM      8  C1  UNL d   1       1.107   5.492  -4.170  0.00  0.00     0.054 C 
ATOM      9  C   UNL d   1       2.492   5.998  -3.793  0.00  0.00     0.018 C 
ENDBRANCH   1   8
TORSDOF 1
ENDMDL
