MODEL 1
REMARK minimizedAffinity 19.1574821
REMARK minimizedRMSD -1
REMARK  1 active torsions:
REMARK  status: ('A' for Active; 'I' for Inactive)
REMARK    1  A    between atoms: C1_2  and  C2_3 
ROOT
ATOM      1  C2  UNL d   1       0.489  -2.768  -5.910  0.00  0.00    -0.081 A 
ATOM      2  C3  UNL d   1       1.063  -1.491  -5.932  0.00  0.00     0.006 A 
ATOM      3  C4  UNL d   1       2.451  -1.338  -5.948  0.00  0.00     0.002 A 
ATOM      4  C5  UNL d   1       3.288  -2.459  -5.949  0.00  0.00    -0.080 A 
ATOM      5  C6  UNL d   1       4.780  -2.309  -5.996  0.00  0.00     0.076 C 
ATOM      6  C7  UNL d   1       2.716  -3.735  -5.910  0.00  0.00     0.002 A 
ATOM      7  C8  UNL d   1       1.328  -3.888  -5.894  0.00  0.00     0.006 A 
ENDROOT
BRANCH   1   8
ATOM      8  C1  UNL d   1      -1.008  -2.937  -5.959  0.00  0.00     0.054 C 
ATOM      9  C   UNL d   1      -1.402  -4.405  -5.879  0.00  0.00     0.018 C 
ENDBRANCH   1   8
TORSDOF 1
ENDMDL
