MODEL 1
REMARK minimizedAffinity 13.0319157
REMARK minimizedRMSD -1
REMARK  1 active torsions:
REMARK  status: ('A' for Active; 'I' for Inactive)
REMARK    1  A    between atoms: C1_2  and  C2_3 
ROOT
ATOM      1  C2  UNL d   1      -4.680  -3.384   5.166  0.00  0.00    -0.081 A 
ATOM      2  C3  UNL d   1      -4.004  -3.786   4.008  0.00  0.00     0.006 A 
ATOM      3  C4  UNL d   1      -2.753  -3.249   3.696  0.00  0.00     0.002 A 
ATOM      4  C5  UNL d   1      -2.153  -2.308   4.539  0.00  0.00    -0.080 A 
ATOM      5  C6  UNL d   1      -0.797  -1.747   4.232  0.00  0.00     0.076 C 
ATOM      6  C7  UNL d   1      -2.836  -1.893   5.688  0.00  0.00     0.002 A 
ATOM      7  C8  UNL d   1      -4.088  -2.429   6.000  0.00  0.00     0.006 A 
ENDROOT
BRANCH   1   8
ATOM      8  C1  UNL d   1      -6.000  -4.008   5.539  0.00  0.00     0.054 C 
ATOM      9  C   UNL d   1      -6.000  -5.506   5.268  0.00  0.00     0.018 C 
ENDBRANCH   1   8
TORSDOF 1
ENDMDL
