MODEL 1
REMARK minimizedAffinity 7.67831039
REMARK minimizedRMSD -1
REMARK  1 active torsions:
REMARK  status: ('A' for Active; 'I' for Inactive)
REMARK    1  A    between atoms: C1_2  and  C2_3 
ROOT
ATOM      1  C2  UNL d   1      -0.479   2.726  -0.013  0.00  0.00    -0.081 A 
ATOM      2  C3  UNL d   1      -0.004   4.041  -0.084  0.00  0.00     0.006 A 
ATOM      3  C4  UNL d   1      -0.270   4.830  -1.205  0.00  0.00     0.002 A 
ATOM      4  C5  UNL d   1      -1.021   4.321  -2.270  0.00  0.00    -0.080 A 
ATOM      5  C6  UNL d   1      -1.339   5.167  -3.466  0.00  0.00     0.076 C 
ATOM      6  C7  UNL d   1      -1.480   3.001  -2.207  0.00  0.00     0.002 A 
ATOM      7  C8  UNL d   1      -1.214   2.211  -1.086  0.00  0.00     0.006 A 
ENDROOT
BRANCH   1   8
ATOM      8  C1  UNL d   1      -0.249   1.894   1.223  0.00  0.00     0.054 C 
ATOM      9  C   UNL d   1      -1.564   1.536   1.902  0.00  0.00     0.018 C 
ENDBRANCH   1   8
TORSDOF 1
ENDMDL
