MODEL 1
REMARK minimizedAffinity 10.2469978
REMARK minimizedRMSD -1
REMARK  1 active torsions:
REMARK  status: ('A' for Active; 'I' for Inactive)
REMARK    1  A    between atoms: C1_2  and  C2_3 
ROOT
ATOM      1  C2  UNL d   1      -0.887   2.550   0.616  0.00  0.00    -0.081 A 
ATOM      2  C3  UNL d   1      -1.355   2.559  -0.703  0.00  0.00     0.006 A 
ATOM      3  C4  UNL d   1      -0.774   3.400  -1.655  0.00  0.00     0.002 A 
ATOM      4  C5  UNL d   1       0.288   4.240  -1.306  0.00  0.00    -0.080 A 
ATOM      5  C6  UNL d   1       0.941   5.126  -2.325  0.00  0.00     0.076 C 
ATOM      6  C7  UNL d   1       0.745   4.244   0.017  0.00  0.00     0.002 A 
ATOM      7  C8  UNL d   1       0.164   3.404   0.969  0.00  0.00     0.006 A 
ENDROOT
BRANCH   1   8
ATOM      8  C1  UNL d   1      -1.468   1.597   1.629  0.00  0.00     0.054 C 
ATOM      9  C   UNL d   1      -2.913   1.253   1.300  0.00  0.00     0.018 C 
ENDBRANCH   1   8
TORSDOF 1
ENDMDL
