MODEL 1
REMARK minimizedAffinity 5.73492432
REMARK minimizedRMSD -1
REMARK  1 active torsions:
REMARK  status: ('A' for Active; 'I' for Inactive)
REMARK    1  A    between atoms: C1_2  and  C2_3 
ROOT
ATOM      1  C2  UNL d   1      -1.933   2.370   1.551  0.00  0.00    -0.081 A 
ATOM      2  C3  UNL d   1      -2.424   3.641   1.232  0.00  0.00     0.006 A 
ATOM      3  C4  UNL d   1      -1.700   4.488   0.389  0.00  0.00     0.002 A 
ATOM      4  C5  UNL d   1      -0.479   4.075  -0.154  0.00  0.00    -0.080 A 
ATOM      5  C6  UNL d   1       0.294   4.963  -1.085  0.00  0.00     0.076 C 
ATOM      6  C7  UNL d   1       0.020   2.811   0.179  0.00  0.00     0.002 A 
ATOM      7  C8  UNL d   1      -0.703   1.964   1.022  0.00  0.00     0.006 A 
ENDROOT
BRANCH   1   8
ATOM      8  C1  UNL d   1      -2.742   1.429   2.408  0.00  0.00     0.054 C 
ATOM      9  C   UNL d   1      -1.857   0.677   3.391  0.00  0.00     0.018 C 
ENDBRANCH   1   8
TORSDOF 1
ENDMDL
