MODEL 1
REMARK minimizedAffinity 0.266626865
REMARK minimizedRMSD -1
REMARK  1 active torsions:
REMARK  status: ('A' for Active; 'I' for Inactive)
REMARK    1  A    between atoms: C1_2  and  C2_3 
ROOT
ATOM      1  C2  UNL d   1      -0.924   2.959  -2.100  0.00  0.00    -0.081 A 
ATOM      2  C3  UNL d   1      -0.853   2.226  -0.908  0.00  0.00     0.006 A 
ATOM      3  C4  UNL d   1      -0.313   2.800   0.245  0.00  0.00     0.002 A 
ATOM      4  C5  UNL d   1       0.157   4.118   0.229  0.00  0.00    -0.080 A 
ATOM      5  C6  UNL d   1       0.711   4.756   1.468  0.00  0.00     0.076 C 
ATOM      6  C7  UNL d   1       0.103   4.844  -0.966  0.00  0.00     0.002 A 
ATOM      7  C8  UNL d   1      -0.437   4.270  -2.119  0.00  0.00     0.006 A 
ENDROOT
BRANCH   1   8
ATOM      8  C1  UNL d   1      -1.565   2.365  -3.328  0.00  0.00     0.054 C 
ATOM      9  C   UNL d   1      -2.821   1.583  -2.973  0.00  0.00     0.018 C 
ENDBRANCH   1   8
TORSDOF 1
ENDMDL
