MODEL 1
REMARK minimizedAffinity 2.82970762
REMARK minimizedRMSD -1
REMARK  1 active torsions:
REMARK  status: ('A' for Active; 'I' for Inactive)
REMARK    1  A    between atoms: C1_2  and  C2_3 
ROOT
ATOM      1  C2  UNL d   1      -0.026   4.029  -0.440  0.00  0.00    -0.081 A 
ATOM      2  C3  UNL d   1       0.396   5.354  -0.604  0.00  0.00     0.006 A 
ATOM      3  C4  UNL d   1       1.112   5.999   0.407  0.00  0.00     0.002 A 
ATOM      4  C5  UNL d   1       1.424   5.328   1.595  0.00  0.00    -0.080 A 
ATOM      5  C6  UNL d   1       2.218   6.000   2.676  0.00  0.00     0.076 C 
ATOM      6  C7  UNL d   1       0.987   4.011   1.766  0.00  0.00     0.002 A 
ATOM      7  C8  UNL d   1       0.270   3.365   0.755  0.00  0.00     0.006 A 
ENDROOT
BRANCH   1   8
ATOM      8  C1  UNL d   1      -0.742   3.309  -1.555  0.00  0.00     0.054 C 
ATOM      9  C   UNL d   1      -0.732   4.128  -2.838  0.00  0.00     0.018 C 
ENDBRANCH   1   8
TORSDOF 1
ENDMDL
