MODEL 1
REMARK minimizedAffinity 4.37719107
REMARK minimizedRMSD -1
REMARK  1 active torsions:
REMARK  status: ('A' for Active; 'I' for Inactive)
REMARK    1  A    between atoms: C1_2  and  C2_3 
ROOT
ATOM      1  C2  UNL d   1      -5.441  -1.836  -0.152  0.00  0.00    -0.081 A 
ATOM      2  C3  UNL d   1      -4.326  -2.215  -0.909  0.00  0.00     0.006 A 
ATOM      3  C4  UNL d   1      -3.773  -1.337  -1.844  0.00  0.00     0.002 A 
ATOM      4  C5  UNL d   1      -4.321  -0.063  -2.032  0.00  0.00    -0.080 A 
ATOM      5  C6  UNL d   1      -3.719   0.901  -3.011  0.00  0.00     0.076 C 
ATOM      6  C7  UNL d   1      -5.446   0.309  -1.289  0.00  0.00     0.002 A 
ATOM      7  C8  UNL d   1      -6.000  -0.569  -0.354  0.00  0.00     0.006 A 
ENDROOT
BRANCH   1   8
ATOM      8  C1  UNL d   1      -6.000  -2.757   0.903  0.00  0.00     0.054 C 
ATOM      9  C   UNL d   1      -5.998  -4.204   0.431  0.00  0.00     0.018 C 
ENDBRANCH   1   8
TORSDOF 1
ENDMDL
