MODEL 1
REMARK minimizedAffinity 6.19113636
REMARK minimizedRMSD -1
REMARK  1 active torsions:
REMARK  status: ('A' for Active; 'I' for Inactive)
REMARK    1  A    between atoms: C1_2  and  C2_3 
ROOT
ATOM      1  C2  UNL d   1      -0.665   2.595  -0.270  0.00  0.00    -0.081 A 
ATOM      2  C3  UNL d   1      -1.249   1.586   0.505  0.00  0.00     0.006 A 
ATOM      3  C4  UNL d   1      -1.122   1.597   1.896  0.00  0.00     0.002 A 
ATOM      4  C5  UNL d   1      -0.416   2.622   2.536  0.00  0.00    -0.080 A 
ATOM      5  C6  UNL d   1      -0.298   2.662   4.030  0.00  0.00     0.076 C 
ATOM      6  C7  UNL d   1       0.182   3.621   1.761  0.00  0.00     0.002 A 
ATOM      7  C8  UNL d   1       0.056   3.610   0.370  0.00  0.00     0.006 A 
ENDROOT
BRANCH   1   8
ATOM      8  C1  UNL d   1      -0.855   2.621  -1.765  0.00  0.00     0.054 C 
ATOM      9  C   UNL d   1      -2.162   1.954  -2.168  0.00  0.00     0.018 C 
ENDBRANCH   1   8
TORSDOF 1
ENDMDL
