MODEL 1
REMARK minimizedAffinity 15.0196867
REMARK minimizedRMSD -1
REMARK  1 active torsions:
REMARK  status: ('A' for Active; 'I' for Inactive)
REMARK    1  A    between atoms: C1_2  and  C2_3 
ROOT
ATOM      1  C2  UNL d   1       3.082  -2.763  -4.171  0.00  0.00    -0.081 A 
ATOM      2  C3  UNL d   1       4.461  -2.998  -4.110  0.00  0.00     0.006 A 
ATOM      3  C4  UNL d   1       4.993  -3.845  -3.135  0.00  0.00     0.002 A 
ATOM      4  C5  UNL d   1       4.155  -4.476  -2.210  0.00  0.00    -0.080 A 
ATOM      5  C6  UNL d   1       4.709  -5.411  -1.176  0.00  0.00     0.076 C 
ATOM      6  C7  UNL d   1       2.779  -4.227  -2.259  0.00  0.00     0.002 A 
ATOM      7  C8  UNL d   1       2.247  -3.380  -3.233  0.00  0.00     0.006 A 
ENDROOT
BRANCH   1   8
ATOM      8  C1  UNL d   1       2.498  -1.901  -5.262  0.00  0.00     0.054 C 
ATOM      9  C   UNL d   1       1.381  -2.625  -6.000  0.00  0.00     0.018 C 
ENDBRANCH   1   8
TORSDOF 1
ENDMDL
