MODEL 1
REMARK minimizedAffinity -2.91397691
REMARK minimizedRMSD -1
REMARK  0 active torsions:
REMARK  status: ('A' for Active; 'I' for Inactive)
ROOT
ATOM      1  C1  BNZ d   1       3.407   2.972   0.257  0.00  0.00     0.000 A 
ATOM      2  C2  BNZ d   1       3.046   1.849  -0.439  0.00  0.00     0.000 A 
ATOM      3  C3  BNZ d   1       2.223   0.913   0.121  0.00  0.00     0.000 A 
ATOM      4  C4  BNZ d   1       1.796   1.079   1.390  0.00  0.00     0.000 A 
ATOM      5  C5  BNZ d   1       2.160   2.201   2.108  0.00  0.00     0.000 A 
ATOM      6  C6  BNZ d   1       2.956   3.161   1.527  0.00  0.00     0.000 A 
ENDROOT
TORSDOF 0
ENDMDL
