MODEL 1
REMARK minimizedAffinity -2.08227301
REMARK minimizedRMSD -1
REMARK  0 active torsions:
REMARK  status: ('A' for Active; 'I' for Inactive)
ROOT
ATOM      1  C1  BNZ d   1       2.049   1.776   1.797  0.00  0.00     0.000 A 
ATOM      2  C2  BNZ d   1       1.791   3.120   1.783  0.00  0.00     0.000 A 
ATOM      3  C3  BNZ d   1       2.147   3.890   0.710  0.00  0.00     0.000 A 
ATOM      4  C4  BNZ d   1       2.796   3.322  -0.326  0.00  0.00     0.000 A 
ATOM      5  C5  BNZ d   1       3.072   1.970  -0.322  0.00  0.00     0.000 A 
ATOM      6  C6  BNZ d   1       2.678   1.191   0.741  0.00  0.00     0.000 A 
ENDROOT
TORSDOF 0
ENDMDL
