MODEL 1
REMARK minimizedAffinity -3.41095781
REMARK minimizedRMSD -1
REMARK  0 active torsions:
REMARK  status: ('A' for Active; 'I' for Inactive)
ROOT
ATOM      1  C1  BNZ d   1       2.921   1.491   1.438  0.00  0.00     0.000 A 
ATOM      2  C2  BNZ d   1       3.016   0.309   0.753  0.00  0.00     0.000 A 
ATOM      3  C3  BNZ d   1       1.935  -0.207   0.095  0.00  0.00     0.000 A 
ATOM      4  C4  BNZ d   1       0.752   0.436   0.157  0.00  0.00     0.000 A 
ATOM      5  C5  BNZ d   1       0.637   1.624   0.852  0.00  0.00     0.000 A 
ATOM      6  C6  BNZ d   1       1.737   2.161   1.480  0.00  0.00     0.000 A 
ENDROOT
TORSDOF 0
ENDMDL
