MODEL 1
REMARK minimizedAffinity -2.91331005
REMARK minimizedRMSD -1
REMARK  0 active torsions:
REMARK  status: ('A' for Active; 'I' for Inactive)
ROOT
ATOM      1  C1  BNZ d   1       1.451   0.292  -0.186  0.00  0.00     0.000 A 
ATOM      2  C2  BNZ d   1       0.711   0.910  -1.158  0.00  0.00     0.000 A 
ATOM      3  C3  BNZ d   1      -0.598   0.573  -1.363  0.00  0.00     0.000 A 
ATOM      4  C4  BNZ d   1      -1.153  -0.409  -0.623  0.00  0.00     0.000 A 
ATOM      5  C5  BNZ d   1      -0.417  -1.048   0.355  0.00  0.00     0.000 A 
ATOM      6  C6  BNZ d   1       0.889  -0.679   0.584  0.00  0.00     0.000 A 
ENDROOT
TORSDOF 0
ENDMDL
