MODEL 1
REMARK minimizedAffinity -2.20726585
REMARK minimizedRMSD -1
REMARK  0 active torsions:
REMARK  status: ('A' for Active; 'I' for Inactive)
ROOT
ATOM      1  C1  BNZ d   1       2.959   1.690   1.295  0.00  0.00     0.000 A 
ATOM      2  C2  BNZ d   1       2.886   0.394   0.859  0.00  0.00     0.000 A 
ATOM      3  C3  BNZ d   1       1.764  -0.072   0.232  0.00  0.00     0.000 A 
ATOM      4  C4  BNZ d   1       0.702   0.746   0.079  0.00  0.00     0.000 A 
ATOM      5  C5  BNZ d   1       0.757   2.052   0.522  0.00  0.00     0.000 A 
ATOM      6  C6  BNZ d   1       1.902   2.529   1.117  0.00  0.00     0.000 A 
ENDROOT
TORSDOF 0
ENDMDL
