MODEL 1
REMARK minimizedAffinity -3.02498531
REMARK minimizedRMSD -1
REMARK  0 active torsions:
REMARK  status: ('A' for Active; 'I' for Inactive)
ROOT
ATOM      1  C1  BNZ d   1       3.017   1.562  -0.102  0.00  0.00     0.000 A 
ATOM      2  C2  BNZ d   1       3.550   2.593   0.626  0.00  0.00     0.000 A 
ATOM      3  C3  BNZ d   1       2.821   3.208   1.605  0.00  0.00     0.000 A 
ATOM      4  C4  BNZ d   1       1.549   2.820   1.828  0.00  0.00     0.000 A 
ATOM      5  C5  BNZ d   1       0.994   1.789   1.096  0.00  0.00     0.000 A 
ATOM      6  C6  BNZ d   1       1.744   1.146   0.138  0.00  0.00     0.000 A 
ENDROOT
TORSDOF 0
ENDMDL
