MODEL 1
REMARK minimizedAffinity -2.33353114
REMARK minimizedRMSD -1
REMARK  0 active torsions:
REMARK  status: ('A' for Active; 'I' for Inactive)
ROOT
ATOM      1  C1  BNZ d   1      -2.228  -1.093  -1.176  0.00  0.00     0.000 A 
ATOM      2  C2  BNZ d   1      -1.587   0.043  -1.592  0.00  0.00     0.000 A 
ATOM      3  C3  BNZ d   1      -0.494   0.516  -0.920  0.00  0.00     0.000 A 
ATOM      4  C4  BNZ d   1      -0.069  -0.125   0.188  0.00  0.00     0.000 A 
ATOM      5  C5  BNZ d   1      -0.710  -1.267   0.625  0.00  0.00     0.000 A 
ATOM      6  C6  BNZ d   1      -1.786  -1.761  -0.076  0.00  0.00     0.000 A 
ENDROOT
TORSDOF 0
ENDMDL
