MODEL 1
REMARK minimizedAffinity -1.35700798
REMARK minimizedRMSD -1
REMARK  0 active torsions:
REMARK  status: ('A' for Active; 'I' for Inactive)
ROOT
ATOM      1  C1  BNZ d   1      -0.030   0.143  -1.018  0.00  0.00     0.000 A 
ATOM      2  C2  BNZ d   1      -1.181  -0.148  -1.702  0.00  0.00     0.000 A 
ATOM      3  C3  BNZ d   1      -1.987  -1.179  -1.309  0.00  0.00     0.000 A 
ATOM      4  C4  BNZ d   1      -1.623  -1.942  -0.258  0.00  0.00     0.000 A 
ATOM      5  C5  BNZ d   1      -0.462  -1.668   0.436  0.00  0.00     0.000 A 
ATOM      6  C6  BNZ d   1       0.328  -0.605   0.061  0.00  0.00     0.000 A 
ENDROOT
TORSDOF 0
ENDMDL
