MODEL 1
REMARK minimizedAffinity -2.44440699
REMARK minimizedRMSD -1
REMARK  0 active torsions:
REMARK  status: ('A' for Active; 'I' for Inactive)
ROOT
ATOM      1  C1  BNZ d   1      -2.402   0.000  -1.354  0.00  0.00     0.000 A 
ATOM      2  C2  BNZ d   1      -1.346   0.817  -1.050  0.00  0.00     0.000 A 
ATOM      3  C3  BNZ d   1      -0.296   0.357  -0.306  0.00  0.00     0.000 A 
ATOM      4  C4  BNZ d   1      -0.322  -0.906   0.166  0.00  0.00     0.000 A 
ATOM      5  C5  BNZ d   1      -1.384  -1.739  -0.123  0.00  0.00     0.000 A 
ATOM      6  C6  BNZ d   1      -2.421  -1.284  -0.905  0.00  0.00     0.000 A 
ENDROOT
TORSDOF 0
ENDMDL
