MODEL 1
REMARK minimizedAffinity -1.46196079
REMARK minimizedRMSD -1
REMARK  0 active torsions:
REMARK  status: ('A' for Active; 'I' for Inactive)
ROOT
ATOM      1  C1  BNZ d   1       0.691  -0.415   0.064  0.00  0.00     0.000 A 
ATOM      2  C2  BNZ d   1       1.754  -0.394   0.928  0.00  0.00     0.000 A 
ATOM      3  C3  BNZ d   1       2.618   0.665   0.950  0.00  0.00     0.000 A 
ATOM      4  C4  BNZ d   1       2.442   1.681   0.081  0.00  0.00     0.000 A 
ATOM      5  C5  BNZ d   1       1.382   1.670  -0.803  0.00  0.00     0.000 A 
ATOM      6  C6  BNZ d   1       0.491   0.621  -0.795  0.00  0.00     0.000 A 
ENDROOT
TORSDOF 0
ENDMDL
