MODEL 1
REMARK minimizedAffinity -3.67890716
REMARK minimizedRMSD -1
REMARK  0 active torsions:
REMARK  status: ('A' for Active; 'I' for Inactive)
ROOT
ATOM      1  C1  BNZ d   1      -0.570  -1.789   1.130  0.00  0.00     0.000 A 
ATOM      2  C2  BNZ d   1      -1.631  -2.620   0.887  0.00  0.00     0.000 A 
ATOM      3  C3  BNZ d   1      -2.583  -2.287  -0.035  0.00  0.00     0.000 A 
ATOM      4  C4  BNZ d   1      -2.496  -1.108  -0.682  0.00  0.00     0.000 A 
ATOM      5  C5  BNZ d   1      -1.438  -0.254  -0.441  0.00  0.00     0.000 A 
ATOM      6  C6  BNZ d   1      -0.460  -0.610   0.459  0.00  0.00     0.000 A 
ENDROOT
TORSDOF 0
ENDMDL
