MODEL 1
REMARK minimizedAffinity -3.58669209
REMARK minimizedRMSD -1
REMARK  0 active torsions:
REMARK  status: ('A' for Active; 'I' for Inactive)
ROOT
ATOM      1  C1  BNZ d   1      -2.212  -0.187  -1.377  0.00  0.00     0.000 A 
ATOM      2  C2  BNZ d   1      -1.153   0.670  -1.242  0.00  0.00     0.000 A 
ATOM      3  C3  BNZ d   1      -0.050   0.311  -0.518  0.00  0.00     0.000 A 
ATOM      4  C4  BNZ d   1      -0.025  -0.887   0.101  0.00  0.00     0.000 A 
ATOM      5  C5  BNZ d   1      -1.089  -1.758  -0.019  0.00  0.00     0.000 A 
ATOM      6  C6  BNZ d   1      -2.181  -1.409  -0.780  0.00  0.00     0.000 A 
ENDROOT
TORSDOF 0
ENDMDL
