MODEL 1
REMARK minimizedAffinity -2.50370955
REMARK minimizedRMSD -1
REMARK  0 active torsions:
REMARK  status: ('A' for Active; 'I' for Inactive)
ROOT
ATOM      1  C1  BNZ d   1      -2.936  -0.083  -1.233  0.00  0.00     0.000 A 
ATOM      2  C2  BNZ d   1      -3.574  -0.669  -0.173  0.00  0.00     0.000 A 
ATOM      3  C3  BNZ d   1      -2.894  -1.482   0.691  0.00  0.00     0.000 A 
ATOM      4  C4  BNZ d   1      -1.589  -1.739   0.471  0.00  0.00     0.000 A 
ATOM      5  C5  BNZ d   1      -0.934  -1.163  -0.600  0.00  0.00     0.000 A 
ATOM      6  C6  BNZ d   1      -1.612  -0.315  -1.445  0.00  0.00     0.000 A 
ENDROOT
TORSDOF 0
ENDMDL
