MODEL 1
REMARK minimizedAffinity -1.17362404
REMARK minimizedRMSD -1
REMARK  0 active torsions:
REMARK  status: ('A' for Active; 'I' for Inactive)
ROOT
ATOM      1  C1  BNZ d   1       1.864   1.556  -0.561  0.00  0.00     0.000 A 
ATOM      2  C2  BNZ d   1       0.773   0.989  -1.164  0.00  0.00     0.000 A 
ATOM      3  C3  BNZ d   1       0.063   0.001  -0.540  0.00  0.00     0.000 A 
ATOM      4  C4  BNZ d   1       0.469  -0.446   0.666  0.00  0.00     0.000 A 
ATOM      5  C5  BNZ d   1       1.573   0.109   1.282  0.00  0.00     0.000 A 
ATOM      6  C6  BNZ d   1       2.261   1.130   0.669  0.00  0.00     0.000 A 
ENDROOT
TORSDOF 0
ENDMDL
