MODEL 1
REMARK minimizedAffinity -3.43731809
REMARK minimizedRMSD -1
REMARK  0 active torsions:
REMARK  status: ('A' for Active; 'I' for Inactive)
ROOT
ATOM      1  C1  BNZ d   1       0.445   2.085   0.398  0.00  0.00     0.000 A 
ATOM      2  C2  BNZ d   1      -0.729   1.843  -0.264  0.00  0.00     0.000 A 
ATOM      3  C3  BNZ d   1      -0.917   0.676  -0.950  0.00  0.00     0.000 A 
ATOM      4  C4  BNZ d   1       0.082  -0.228  -1.007  0.00  0.00     0.000 A 
ATOM      5  C5  BNZ d   1       1.275   0.006  -0.353  0.00  0.00     0.000 A 
ATOM      6  C6  BNZ d   1       1.447   1.164   0.369  0.00  0.00     0.000 A 
ENDROOT
TORSDOF 0
ENDMDL
