MODEL 1
REMARK minimizedAffinity -1.29422557
REMARK minimizedRMSD -1
REMARK  0 active torsions:
REMARK  status: ('A' for Active; 'I' for Inactive)
ROOT
ATOM      1  C1  BNZ d   1       0.118  -0.263   0.527  0.00  0.00     0.000 A 
ATOM      2  C2  BNZ d   1      -1.073  -0.935   0.602  0.00  0.00     0.000 A 
ATOM      3  C3  BNZ d   1      -1.958  -0.908  -0.440  0.00  0.00     0.000 A 
ATOM      4  C4  BNZ d   1      -1.670  -0.178  -1.536  0.00  0.00     0.000 A 
ATOM      5  C5  BNZ d   1      -0.477   0.512  -1.623  0.00  0.00     0.000 A 
ATOM      6  C6  BNZ d   1       0.429   0.451  -0.589  0.00  0.00     0.000 A 
ENDROOT
TORSDOF 0
ENDMDL
