MODEL 1
REMARK minimizedAffinity -3.28352308
REMARK minimizedRMSD -1
REMARK  1 active torsions:
REMARK  status: ('A' for Active; 'I' for Inactive)
REMARK    1  A    between atoms: C1_2  and  C2_3 
ROOT
ATOM      1  C2  UNL d   1       0.202   0.845   0.115  0.00  0.00    -0.081 A 
ATOM      2  C3  UNL d   1       0.591  -0.493   0.245  0.00  0.00     0.006 A 
ATOM      3  C4  UNL d   1      -0.109  -1.355   1.092  0.00  0.00     0.002 A 
ATOM      4  C5  UNL d   1      -1.215  -0.896   1.816  0.00  0.00    -0.080 A 
ATOM      5  C6  UNL d   1      -1.994  -1.819   2.705  0.00  0.00     0.076 C 
ATOM      6  C7  UNL d   1      -1.593   0.446   1.699  0.00  0.00     0.002 A 
ATOM      7  C8  UNL d   1      -0.893   1.308   0.853  0.00  0.00     0.006 A 
ENDROOT
BRANCH   1   8
ATOM      8  C1  UNL d   1       0.915   1.761  -0.847  0.00  0.00     0.054 C 
ATOM      9  C   UNL d   1       0.317   1.672  -2.243  0.00  0.00     0.018 C 
ENDBRANCH   1   8
TORSDOF 1
ENDMDL
