MODEL 1
REMARK minimizedAffinity -4.03378725
REMARK minimizedRMSD -1
REMARK  1 active torsions:
REMARK  status: ('A' for Active; 'I' for Inactive)
REMARK    1  A    between atoms: C1_2  and  C2_3 
ROOT
ATOM      1  C2  UNL d   1       0.627   0.679  -1.128  0.00  0.00    -0.081 A 
ATOM      2  C3  UNL d   1       0.163   1.155   0.104  0.00  0.00     0.006 A 
ATOM      3  C4  UNL d   1      -0.304   0.267   1.076  0.00  0.00     0.002 A 
ATOM      4  C5  UNL d   1      -0.309  -1.111   0.835  0.00  0.00    -0.080 A 
ATOM      5  C6  UNL d   1      -0.779  -2.078   1.881  0.00  0.00     0.076 C 
ATOM      6  C7  UNL d   1       0.138  -1.586  -0.403  0.00  0.00     0.002 A 
ATOM      7  C8  UNL d   1       0.605  -0.699  -1.375  0.00  0.00     0.006 A 
ENDROOT
BRANCH   1   8
ATOM      8  C1  UNL d   1       1.191   1.628  -2.154  0.00  0.00     0.054 C 
ATOM      9  C   UNL d   1       0.102   2.164  -3.072  0.00  0.00     0.018 C 
ENDBRANCH   1   8
TORSDOF 1
ENDMDL
