MODEL 1
REMARK minimizedAffinity -4.15571117
REMARK minimizedRMSD -1
REMARK  1 active torsions:
REMARK  status: ('A' for Active; 'I' for Inactive)
REMARK    1  A    between atoms: C1_2  and  C2_3 
ROOT
ATOM      1  C2  UNL d   1       0.071   0.117  -0.004  0.00  0.00    -0.081 A 
ATOM      2  C3  UNL d   1       0.540  -1.202   0.041  0.00  0.00     0.006 A 
ATOM      3  C4  UNL d   1      -0.289  -2.234   0.487  0.00  0.00     0.002 A 
ATOM      4  C5  UNL d   1      -1.603  -1.966   0.888  0.00  0.00    -0.080 A 
ATOM      5  C6  UNL d   1      -2.513  -3.069   1.340  0.00  0.00     0.076 C 
ATOM      6  C7  UNL d   1      -2.066  -0.646   0.860  0.00  0.00     0.002 A 
ATOM      7  C8  UNL d   1      -1.237   0.386   0.415  0.00  0.00     0.006 A 
ENDROOT
BRANCH   1   8
ATOM      8  C1  UNL d   1       0.941   1.222  -0.545  0.00  0.00     0.054 C 
ATOM      9  C   UNL d   1       0.640   1.495  -2.012  0.00  0.00     0.018 C 
ENDBRANCH   1   8
TORSDOF 1
ENDMDL
