MODEL 1
REMARK minimizedAffinity -0.802268624
REMARK minimizedRMSD -1
REMARK  1 active torsions:
REMARK  status: ('A' for Active; 'I' for Inactive)
REMARK    1  A    between atoms: C1_2  and  C2_3 
ROOT
ATOM      1  C2  UNL d   1       1.101   0.901  -0.944  0.00  0.00    -0.081 A 
ATOM      2  C3  UNL d   1      -0.000   1.161  -0.119  0.00  0.00     0.006 A 
ATOM      3  C4  UNL d   1      -0.525   0.156   0.698  0.00  0.00     0.002 A 
ATOM      4  C5  UNL d   1       0.047  -1.120   0.710  0.00  0.00    -0.080 A 
ATOM      5  C6  UNL d   1      -0.487  -2.198   1.606  0.00  0.00     0.076 C 
ATOM      6  C7  UNL d   1       1.137  -1.384  -0.126  0.00  0.00     0.002 A 
ATOM      7  C8  UNL d   1       1.662  -0.381  -0.944  0.00  0.00     0.006 A 
ENDROOT
BRANCH   1   8
ATOM      8  C1  UNL d   1       1.710   2.000  -1.778  0.00  0.00     0.054 C 
ATOM      9  C   UNL d   1       1.240   1.922  -3.223  0.00  0.00     0.018 C 
ENDBRANCH   1   8
TORSDOF 1
ENDMDL
