MODEL 1
REMARK minimizedAffinity 15.7265472
REMARK minimizedRMSD -1
REMARK  1 active torsions:
REMARK  status: ('A' for Active; 'I' for Inactive)
REMARK    1  A    between atoms: C1_2  and  C2_3 
ROOT
ATOM      1  C2  UNL d   1       2.010   1.854  -3.350  0.00  0.00    -0.081 A 
ATOM      2  C3  UNL d   1       2.273   2.200  -2.020  0.00  0.00     0.006 A 
ATOM      3  C4  UNL d   1       3.566   2.549  -1.621  0.00  0.00     0.002 A 
ATOM      4  C5  UNL d   1       4.614   2.566  -2.548  0.00  0.00    -0.080 A 
ATOM      5  C6  UNL d   1       6.000   2.968  -2.140  0.00  0.00     0.076 C 
ATOM      6  C7  UNL d   1       4.354   2.203  -3.874  0.00  0.00     0.002 A 
ATOM      7  C8  UNL d   1       3.062   1.853  -4.272  0.00  0.00     0.006 A 
ENDROOT
BRANCH   1   8
ATOM      8  C1  UNL d   1       0.605   1.539  -3.797  0.00  0.00     0.054 C 
ATOM      9  C   UNL d   1      -0.035   2.732  -4.493  0.00  0.00     0.018 C 
ENDBRANCH   1   8
TORSDOF 1
ENDMDL
