MODEL 1
REMARK minimizedAffinity -2.87944937
REMARK minimizedRMSD -1
REMARK  1 active torsions:
REMARK  status: ('A' for Active; 'I' for Inactive)
REMARK    1  A    between atoms: C1_2  and  C2_3 
ROOT
ATOM      1  C2  UNL d   1       1.067   1.022  -0.749  0.00  0.00    -0.081 A 
ATOM      2  C3  UNL d   1       1.711  -0.220  -0.695  0.00  0.00     0.006 A 
ATOM      3  C4  UNL d   1       1.235  -1.229   0.146  0.00  0.00     0.002 A 
ATOM      4  C5  UNL d   1       0.103  -1.016   0.940  0.00  0.00    -0.080 A 
ATOM      5  C6  UNL d   1      -0.436  -2.100   1.824  0.00  0.00     0.076 C 
ATOM      6  C7  UNL d   1      -0.530   0.231   0.900  0.00  0.00     0.002 A 
ATOM      7  C8  UNL d   1      -0.054   1.241   0.060  0.00  0.00     0.006 A 
ENDROOT
BRANCH   1   8
ATOM      8  C1  UNL d   1       1.539   2.090  -1.702  0.00  0.00     0.054 C 
ATOM      9  C   UNL d   1       0.768   2.041  -3.013  0.00  0.00     0.018 C 
ENDBRANCH   1   8
TORSDOF 1
ENDMDL
