MODEL 1
REMARK minimizedAffinity -2.21650243
REMARK minimizedRMSD -1
REMARK  1 active torsions:
REMARK  status: ('A' for Active; 'I' for Inactive)
REMARK    1  A    between atoms: C1_2  and  C2_3 
ROOT
ATOM      1  C2  UNL d   1       1.208   0.981  -0.551  0.00  0.00    -0.081 A 
ATOM      2  C3  UNL d   1       1.962  -0.191  -0.414  0.00  0.00     0.006 A 
ATOM      3  C4  UNL d   1       1.437  -1.296   0.260  0.00  0.00     0.002 A 
ATOM      4  C5  UNL d   1       0.147  -1.252   0.799  0.00  0.00    -0.080 A 
ATOM      5  C6  UNL d   1      -0.440  -2.443   1.497  0.00  0.00     0.076 C 
ATOM      6  C7  UNL d   1      -0.600  -0.076   0.677  0.00  0.00     0.002 A 
ATOM      7  C8  UNL d   1      -0.075   1.030   0.004  0.00  0.00     0.006 A 
ENDROOT
BRANCH   1   8
ATOM      8  C1  UNL d   1       1.746   2.152  -1.333  0.00  0.00     0.054 C 
ATOM      9  C   UNL d   1       1.248   2.134  -2.771  0.00  0.00     0.018 C 
ENDBRANCH   1   8
TORSDOF 1
ENDMDL
