MODEL 1
REMARK minimizedAffinity -3.2994256
REMARK minimizedRMSD -1
REMARK  1 active torsions:
REMARK  status: ('A' for Active; 'I' for Inactive)
REMARK    1  A    between atoms: C1_2  and  C2_3 
ROOT
ATOM      1  C2  UNL d   1       0.080  -1.201   0.326  0.00  0.00    -0.081 A 
ATOM      2  C3  UNL d   1       0.796  -0.160   0.930  0.00  0.00     0.006 A 
ATOM      3  C4  UNL d   1       1.175   0.962   0.190  0.00  0.00     0.002 A 
ATOM      4  C5  UNL d   1       0.838   1.066  -1.164  0.00  0.00    -0.080 A 
ATOM      5  C6  UNL d   1       1.212   2.279  -1.963  0.00  0.00     0.076 C 
ATOM      6  C7  UNL d   1       0.138   0.018  -1.772  0.00  0.00     0.002 A 
ATOM      7  C8  UNL d   1      -0.241  -1.104  -1.032  0.00  0.00     0.006 A 
ENDROOT
BRANCH   1   8
ATOM      8  C1  UNL d   1      -0.386  -2.382   1.138  0.00  0.00     0.054 C 
ATOM      9  C   UNL d   1      -1.604  -2.030   1.979  0.00  0.00     0.018 C 
ENDBRANCH   1   8
TORSDOF 1
ENDMDL
