MODEL 1
REMARK minimizedAffinity -4.18442059
REMARK minimizedRMSD -1
REMARK  1 active torsions:
REMARK  status: ('A' for Active; 'I' for Inactive)
REMARK    1  A    between atoms: C1_2  and  C2_3 
ROOT
ATOM      1  C2  UNL d   1       0.774   0.449  -0.370  0.00  0.00    -0.081 A 
ATOM      2  C3  UNL d   1       0.677   1.761   0.110  0.00  0.00     0.006 A 
ATOM      3  C4  UNL d   1       0.399   2.816  -0.763  0.00  0.00     0.002 A 
ATOM      4  C5  UNL d   1       0.204   2.576  -2.127  0.00  0.00    -0.080 A 
ATOM      5  C6  UNL d   1      -0.126   3.695  -3.070  0.00  0.00     0.076 C 
ATOM      6  C7  UNL d   1       0.318   1.267  -2.610  0.00  0.00     0.002 A 
ATOM      7  C8  UNL d   1       0.597   0.213  -1.738  0.00  0.00     0.006 A 
ENDROOT
BRANCH   1   8
ATOM      8  C1  UNL d   1       1.010  -0.698   0.578  0.00  0.00     0.054 C 
ATOM      9  C   UNL d   1       0.156  -1.904   0.212  0.00  0.00     0.018 C 
ENDBRANCH   1   8
TORSDOF 1
ENDMDL
