MODEL 1
REMARK minimizedAffinity -2.14440489
REMARK minimizedRMSD -1
REMARK  1 active torsions:
REMARK  status: ('A' for Active; 'I' for Inactive)
REMARK    1  A    between atoms: C1_2  and  C2_3 
ROOT
ATOM      1  C2  UNL d   1       0.750   0.202  -0.421  0.00  0.00    -0.081 A 
ATOM      2  C3  UNL d   1       1.216   1.491  -0.135  0.00  0.00     0.006 A 
ATOM      3  C4  UNL d   1       1.393   2.424  -1.159  0.00  0.00     0.002 A 
ATOM      4  C5  UNL d   1       1.100   2.086  -2.485  0.00  0.00    -0.080 A 
ATOM      5  C6  UNL d   1       1.256   3.088  -3.590  0.00  0.00     0.076 C 
ATOM      6  C7  UNL d   1       0.651   0.793  -2.774  0.00  0.00     0.002 A 
ATOM      7  C8  UNL d   1       0.475  -0.140  -1.750  0.00  0.00     0.006 A 
ENDROOT
BRANCH   1   8
ATOM      8  C1  UNL d   1       0.497  -0.786   0.689  0.00  0.00     0.054 C 
ATOM      9  C   UNL d   1       0.458  -2.213   0.161  0.00  0.00     0.018 C 
ENDBRANCH   1   8
TORSDOF 1
ENDMDL
