MODEL 1
REMARK minimizedAffinity -2.88395262
REMARK minimizedRMSD -1
REMARK  1 active torsions:
REMARK  status: ('A' for Active; 'I' for Inactive)
REMARK    1  A    between atoms: C1_2  and  C2_3 
ROOT
ATOM      1  C2  UNL d   1       0.704   0.776  -0.606  0.00  0.00    -0.081 A 
ATOM      2  C3  UNL d   1       1.245  -0.514  -0.539  0.00  0.00     0.006 A 
ATOM      3  C4  UNL d   1       0.671  -1.481   0.290  0.00  0.00     0.002 A 
ATOM      4  C5  UNL d   1      -0.456  -1.176   1.060  0.00  0.00    -0.080 A 
ATOM      5  C6  UNL d   1      -1.100  -2.213   1.932  0.00  0.00     0.076 C 
ATOM      6  C7  UNL d   1      -0.986   0.117   1.007  0.00  0.00     0.002 A 
ATOM      7  C8  UNL d   1      -0.412   1.084   0.179  0.00  0.00     0.006 A 
ENDROOT
BRANCH   1   8
ATOM      8  C1  UNL d   1       1.282   1.801  -1.548  0.00  0.00     0.054 C 
ATOM      9  C   UNL d   1       0.826   1.556  -2.979  0.00  0.00     0.018 C 
ENDBRANCH   1   8
TORSDOF 1
ENDMDL
