MODEL 1
REMARK minimizedAffinity -4.78264856
REMARK minimizedRMSD -1
REMARK  0 active torsions:
REMARK  status: ('A' for Active; 'I' for Inactive)
ROOT
ATOM      1  C4' PXY d   1      -2.173   0.270   2.148  0.00  0.00     0.077 C 
ATOM      2  C1' PXY d   1       2.206  -2.447  -0.469  0.00  0.00     0.077 C 
ATOM      3  C1  PXY d   1       1.063  -1.723   0.213  0.00  0.00    -0.082 A 
ATOM      4  C2  PXY d   1       0.428  -2.304   1.218  0.00  0.00     0.003 A 
ATOM      5  C3  PXY d   1      -0.629  -1.677   1.826  0.00  0.00     0.003 A 
ATOM      6  C4  PXY d   1      -1.006  -0.420   1.436  0.00  0.00    -0.082 A 
ATOM      7  C5  PXY d   1      -0.357   0.184   0.418  0.00  0.00     0.003 A 
ATOM      8  C6  PXY d   1       0.687  -0.487  -0.213  0.00  0.00     0.003 A 
ENDROOT
TORSDOF 0
ENDMDL
