MODEL 1
REMARK minimizedAffinity 0.956502855
REMARK minimizedRMSD -1
REMARK  0 active torsions:
REMARK  status: ('A' for Active; 'I' for Inactive)
ROOT
ATOM      1  C4' PXY d   1      -2.476   0.583   0.727  0.00  0.00     0.077 C 
ATOM      2  C1' PXY d   1       3.051  -0.872  -0.139  0.00  0.00     0.077 C 
ATOM      3  C1  PXY d   1       1.598  -0.497   0.077  0.00  0.00    -0.082 A 
ATOM      4  C2  PXY d   1       1.299   0.562   0.811  0.00  0.00     0.003 A 
ATOM      5  C3  PXY d   1      -0.011   0.897   1.043  0.00  0.00     0.003 A 
ATOM      6  C4  PXY d   1      -1.023   0.172   0.474  0.00  0.00    -0.082 A 
ATOM      7  C5  PXY d   1      -0.725  -0.904  -0.285  0.00  0.00     0.003 A 
ATOM      8  C6  PXY d   1       0.609  -1.252  -0.475  0.00  0.00     0.003 A 
ENDROOT
TORSDOF 0
ENDMDL
