MODEL 1
REMARK minimizedAffinity -3.51292324
REMARK minimizedRMSD -1
REMARK  0 active torsions:
REMARK  status: ('A' for Active; 'I' for Inactive)
ROOT
ATOM      1  C4' PXY d   1      -1.262  -0.776  -2.667  0.00  0.00     0.077 C 
ATOM      2  C1' PXY d   1       2.865  -1.448   1.325  0.00  0.00     0.077 C 
ATOM      3  C1  PXY d   1       1.777  -1.263   0.285  0.00  0.00    -0.082 A 
ATOM      4  C2  PXY d   1       1.490  -2.252  -0.545  0.00  0.00     0.003 A 
ATOM      5  C3  PXY d   1       0.531  -2.090  -1.512  0.00  0.00     0.003 A 
ATOM      6  C4  PXY d   1      -0.178  -0.922  -1.595  0.00  0.00    -0.082 A 
ATOM      7  C5  PXY d   1       0.102   0.089  -0.745  0.00  0.00     0.003 A 
ATOM      8  C6  PXY d   1       1.107  -0.081   0.203  0.00  0.00     0.003 A 
ENDROOT
TORSDOF 0
ENDMDL
