MODEL 1
REMARK minimizedAffinity 0.0421642624
REMARK minimizedRMSD -1
REMARK  0 active torsions:
REMARK  status: ('A' for Active; 'I' for Inactive)
ROOT
ATOM      1  C4' PXY d   1       1.583   0.253   1.544  0.00  0.00     0.077 C 
ATOM      2  C1' PXY d   1      -2.185   0.693  -2.818  0.00  0.00     0.077 C 
ATOM      3  C1  PXY d   1      -1.191   0.589  -1.679  0.00  0.00    -0.082 A 
ATOM      4  C2  PXY d   1      -0.981  -0.582  -1.099  0.00  0.00     0.003 A 
ATOM      5  C3  PXY d   1      -0.109  -0.689  -0.046  0.00  0.00     0.003 A 
ATOM      6  C4  PXY d   1       0.595   0.404   0.383  0.00  0.00    -0.082 A 
ATOM      7  C5  PXY d   1       0.395   1.600  -0.210  0.00  0.00     0.003 A 
ATOM      8  C6  PXY d   1      -0.525   1.695  -1.250  0.00  0.00     0.003 A 
ENDROOT
TORSDOF 0
ENDMDL
