MODEL 1
REMARK minimizedAffinity -2.84958005
REMARK minimizedRMSD -1
REMARK  0 active torsions:
REMARK  status: ('A' for Active; 'I' for Inactive)
ROOT
ATOM      1  C4' PXY d   1      -1.680  -0.023   0.186  0.00  0.00     0.077 C 
ATOM      2  C1' PXY d   1       3.633   1.780   1.580  0.00  0.00     0.077 C 
ATOM      3  C1  PXY d   1       2.236   1.319   1.211  0.00  0.00    -0.082 A 
ATOM      4  C2  PXY d   1       1.723   0.250   1.798  0.00  0.00     0.003 A 
ATOM      5  C3  PXY d   1       0.475  -0.199   1.453  0.00  0.00     0.003 A 
ATOM      6  C4  PXY d   1      -0.278   0.484   0.535  0.00  0.00    -0.082 A 
ATOM      7  C5  PXY d   1       0.234   1.582  -0.061  0.00  0.00     0.003 A 
ATOM      8  C6  PXY d   1       1.520   1.997   0.274  0.00  0.00     0.003 A 
ENDROOT
TORSDOF 0
ENDMDL
