MODEL 1
REMARK minimizedAffinity 0.377132058
REMARK minimizedRMSD -1
REMARK  0 active torsions:
REMARK  status: ('A' for Active; 'I' for Inactive)
ROOT
ATOM      1  C4' PXY d   1      -1.841   0.208  -0.561  0.00  0.00     0.077 C 
ATOM      2  C1' PXY d   1       3.433   1.003   1.669  0.00  0.00     0.077 C 
ATOM      3  C1  PXY d   1       2.048   0.807   1.085  0.00  0.00    -0.082 A 
ATOM      4  C2  PXY d   1       1.463  -0.377   1.171  0.00  0.00     0.003 A 
ATOM      5  C3  PXY d   1       0.224  -0.580   0.620  0.00  0.00     0.003 A 
ATOM      6  C4  PXY d   1      -0.446   0.454   0.023  0.00  0.00    -0.082 A 
ATOM      7  C5  PXY d   1       0.139   1.668  -0.059  0.00  0.00     0.003 A 
ATOM      8  C6  PXY d   1       1.414   1.842   0.469  0.00  0.00     0.003 A 
ENDROOT
TORSDOF 0
ENDMDL
