MODEL 1
REMARK minimizedAffinity -3.92644143
REMARK minimizedRMSD -1
REMARK  0 active torsions:
REMARK  status: ('A' for Active; 'I' for Inactive)
ROOT
ATOM      1  C4' PXY d   1      -2.732   4.228   0.414  0.00  0.00     0.077 C 
ATOM      2  C1' PXY d   1       0.977  -0.187   0.002  0.00  0.00     0.077 C 
ATOM      3  C1  PXY d   1      -0.006   0.962   0.109  0.00  0.00    -0.082 A 
ATOM      4  C2  PXY d   1       0.379   2.185  -0.218  0.00  0.00     0.003 A 
ATOM      5  C3  PXY d   1      -0.487   3.241  -0.097  0.00  0.00     0.003 A 
ATOM      6  C4  PXY d   1      -1.777   3.035   0.313  0.00  0.00    -0.082 A 
ATOM      7  C5  PXY d   1      -2.181   1.789   0.638  0.00  0.00     0.003 A 
ATOM      8  C6  PXY d   1      -1.274   0.737   0.548  0.00  0.00     0.003 A 
ENDROOT
TORSDOF 0
ENDMDL
