MODEL 1
REMARK minimizedAffinity -6.57241726
REMARK minimizedRMSD -1
REMARK  0 active torsions:
REMARK  status: ('A' for Active; 'I' for Inactive)
ROOT
ATOM      1  C1  DEN d   1      -0.033   1.475  -1.135  0.00  0.00     0.130 A 
ATOM      2  C2  DEN d   1      -0.748   2.667  -1.583  0.00  0.00    -0.031 A 
ATOM      3  C3  DEN d   1      -1.305   3.339  -0.392  0.00  0.00     0.027 A 
ATOM      4  C4  DEN d   1      -1.127   2.655   2.089  0.00  0.00     0.027 A 
ATOM      5  C5  DEN d   1      -0.630   1.712   2.960  0.00  0.00    -0.003 A 
ATOM      6  C6  DEN d   1       0.066   0.614   2.529  0.00  0.00     0.001 A 
ATOM      7  C7  DEN d   1       0.324   0.456   1.193  0.00  0.00     0.017 A 
ATOM      8  C8  DEN d   1      -0.181   1.400   0.307  0.00  0.00    -0.094 A 
ATOM      9  C9  DEN d   1      -0.872   2.509   0.764  0.00  0.00    -0.072 A 
ENDROOT
TORSDOF 0
ENDMDL
