MODEL 1
REMARK minimizedAffinity -4.96552467
REMARK minimizedRMSD -1
REMARK  0 active torsions:
REMARK  status: ('A' for Active; 'I' for Inactive)
ROOT
ATOM      1  C1  DEN d   1       0.199   0.244  -0.896  0.00  0.00     0.130 A 
ATOM      2  C2  DEN d   1       0.577  -0.841   0.006  0.00  0.00    -0.031 A 
ATOM      3  C3  DEN d   1       0.493  -0.334   1.391  0.00  0.00     0.027 A 
ATOM      4  C4  DEN d   1      -0.186   2.012   2.221  0.00  0.00     0.027 A 
ATOM      5  C5  DEN d   1      -0.580   3.272   1.827  0.00  0.00    -0.003 A 
ATOM      6  C6  DEN d   1      -0.708   3.618   0.508  0.00  0.00     0.001 A 
ATOM      7  C7  DEN d   1      -0.483   2.679  -0.465  0.00  0.00     0.017 A 
ATOM      8  C8  DEN d   1      -0.078   1.409  -0.076  0.00  0.00    -0.094 A 
ATOM      9  C9  DEN d   1       0.033   1.076   1.263  0.00  0.00    -0.072 A 
ENDROOT
TORSDOF 0
ENDMDL
