MODEL 1
REMARK minimizedAffinity -5.00740242
REMARK minimizedRMSD -1
REMARK  0 active torsions:
REMARK  status: ('A' for Active; 'I' for Inactive)
ROOT
ATOM      1  C1  DEN d   1       0.188   0.332  -0.642  0.00  0.00     0.130 A 
ATOM      2  C2  DEN d   1       0.427  -0.649   0.412  0.00  0.00    -0.031 A 
ATOM      3  C3  DEN d   1       0.013  -0.049   1.697  0.00  0.00     0.027 A 
ATOM      4  C4  DEN d   1      -0.973   2.291   2.151  0.00  0.00     0.027 A 
ATOM      5  C5  DEN d   1      -1.347   3.483   1.572  0.00  0.00    -0.003 A 
ATOM      6  C6  DEN d   1      -1.206   3.719   0.230  0.00  0.00     0.001 A 
ATOM      7  C7  DEN d   1      -0.718   2.732  -0.585  0.00  0.00     0.017 A 
ATOM      8  C8  DEN d   1      -0.331   1.530  -0.007  0.00  0.00    -0.094 A 
ATOM      9  C9  DEN d   1      -0.493   1.306   1.350  0.00  0.00    -0.072 A 
ENDROOT
TORSDOF 0
ENDMDL
