MODEL 1
REMARK minimizedAffinity -5.35829401
REMARK minimizedRMSD -1
REMARK  0 active torsions:
REMARK  status: ('A' for Active; 'I' for Inactive)
ROOT
ATOM      1  C1  DEN d   1      -1.127   2.079  -0.625  0.00  0.00     0.130 A 
ATOM      2  C2  DEN d   1      -1.483   3.349   0.000  0.00  0.00    -0.031 A 
ATOM      3  C3  DEN d   1      -1.121   3.272   1.430  0.00  0.00     0.027 A 
ATOM      4  C4  DEN d   1      -0.045   1.319   2.727  0.00  0.00     0.027 A 
ATOM      5  C5  DEN d   1       0.428   0.030   2.626  0.00  0.00    -0.003 A 
ATOM      6  C6  DEN d   1       0.385  -0.674   1.452  0.00  0.00     0.001 A 
ATOM      7  C7  DEN d   1      -0.101  -0.075   0.319  0.00  0.00     0.017 A 
ATOM      8  C8  DEN d   1      -0.587   1.222   0.415  0.00  0.00    -0.094 A 
ATOM      9  C9  DEN d   1      -0.523   1.921   1.609  0.00  0.00    -0.072 A 
ENDROOT
TORSDOF 0
ENDMDL
