MODEL 1
REMARK minimizedAffinity -6.05053377
REMARK minimizedRMSD -1
REMARK  0 active torsions:
REMARK  status: ('A' for Active; 'I' for Inactive)
ROOT
ATOM      1  C1  DEN d   1      -0.791   0.748  -1.049  0.00  0.00     0.130 A 
ATOM      2  C2  DEN d   1       0.036  -0.421  -1.337  0.00  0.00    -0.031 A 
ATOM      3  C3  DEN d   1       0.765  -0.780  -0.104  0.00  0.00     0.027 A 
ATOM      4  C4  DEN d   1       0.689   0.350   2.213  0.00  0.00     0.027 A 
ATOM      5  C5  DEN d   1       0.141   1.384   2.940  0.00  0.00    -0.003 A 
ATOM      6  C6  DEN d   1      -0.722   2.291   2.384  0.00  0.00     0.001 A 
ATOM      7  C7  DEN d   1      -1.098   2.155   1.074  0.00  0.00     0.017 A 
ATOM      8  C8  DEN d   1      -0.545   1.119   0.333  0.00  0.00    -0.094 A 
ATOM      9  C9  DEN d   1       0.317   0.206   0.916  0.00  0.00    -0.072 A 
ENDROOT
TORSDOF 0
ENDMDL
