MODEL 1
REMARK minimizedAffinity 5.31587267
REMARK minimizedRMSD -1
REMARK  0 active torsions:
REMARK  status: ('A' for Active; 'I' for Inactive)
ROOT
ATOM      1  C1  DEN d   1       1.414  -1.456   0.836  0.00  0.00     0.130 A 
ATOM      2  C2  DEN d   1       1.083  -0.559  -0.268  0.00  0.00    -0.031 A 
ATOM      3  C3  DEN d   1       0.678   0.740   0.306  0.00  0.00     0.027 A 
ATOM      4  C4  DEN d   1       0.534   1.446   2.782  0.00  0.00     0.027 A 
ATOM      5  C5  DEN d   1       0.704   1.023   4.082  0.00  0.00    -0.003 A 
ATOM      6  C6  DEN d   1       1.087  -0.256   4.389  0.00  0.00     0.001 A 
ATOM      7  C7  DEN d   1       1.356  -1.144   3.382  0.00  0.00     0.017 A 
ATOM      8  C8  DEN d   1       1.179  -0.727   2.069  0.00  0.00    -0.094 A 
ATOM      9  C9  DEN d   1       0.804   0.573   1.779  0.00  0.00    -0.072 A 
ENDROOT
TORSDOF 0
ENDMDL
