MODEL 1
REMARK minimizedAffinity -0.814273536
REMARK minimizedRMSD -1
REMARK  0 active torsions:
REMARK  status: ('A' for Active; 'I' for Inactive)
ROOT
ATOM      1  C   UNL d   1       4.479   0.532  -0.771  0.00  0.00     0.078 C 
ATOM      2  C1  UNL d   1       3.289  -0.371  -0.634  0.00  0.00    -0.077 A 
ATOM      3  C2  UNL d   1       2.034   0.139  -0.281  0.00  0.00    -0.001 A 
ATOM      4  C3  UNL d   1       0.938  -0.715  -0.147  0.00  0.00     0.003 A 
ATOM      5  C4  UNL d   1       1.086  -2.083  -0.364  0.00  0.00    -0.005 A 
ATOM      6  C5  UNL d   1       2.332  -2.600  -0.713  0.00  0.00     0.003 A 
ATOM      7  C6  UNL d   1       3.429  -1.748  -0.847  0.00  0.00    -0.001 A 
ENDROOT
TORSDOF 0
ENDMDL
