MODEL 1
REMARK minimizedAffinity -3.16700172
REMARK minimizedRMSD -1
REMARK  0 active torsions:
REMARK  status: ('A' for Active; 'I' for Inactive)
ROOT
ATOM      1  C   UNL d   1       2.276  -1.836  -0.034  0.00  0.00     0.078 C 
ATOM      2  C1  UNL d   1       1.134  -0.876  -0.179  0.00  0.00    -0.077 A 
ATOM      3  C2  UNL d   1      -0.063  -1.267  -0.792  0.00  0.00    -0.001 A 
ATOM      4  C3  UNL d   1      -1.115  -0.360  -0.929  0.00  0.00     0.003 A 
ATOM      5  C4  UNL d   1      -0.980   0.945  -0.458  0.00  0.00    -0.005 A 
ATOM      6  C5  UNL d   1       0.208   1.344   0.151  0.00  0.00     0.003 A 
ATOM      7  C6  UNL d   1       1.261   0.438   0.289  0.00  0.00    -0.001 A 
ENDROOT
TORSDOF 0
ENDMDL
