MODEL 1
REMARK minimizedAffinity 7.99164438
REMARK minimizedRMSD -1
REMARK  0 active torsions:
REMARK  status: ('A' for Active; 'I' for Inactive)
ROOT
ATOM      1  C   UNL d   1       0.689   1.186   0.869  0.00  0.00     0.078 C 
ATOM      2  C1  UNL d   1       0.080   0.096   0.037  0.00  0.00    -0.077 A 
ATOM      3  C2  UNL d   1      -1.152   0.279  -0.601  0.00  0.00    -0.001 A 
ATOM      4  C3  UNL d   1      -1.712  -0.747  -1.363  0.00  0.00     0.003 A 
ATOM      5  C4  UNL d   1      -1.046  -1.964  -1.494  0.00  0.00    -0.005 A 
ATOM      6  C5  UNL d   1       0.180  -2.156  -0.861  0.00  0.00     0.003 A 
ATOM      7  C6  UNL d   1       0.741  -1.131  -0.098  0.00  0.00    -0.001 A 
ENDROOT
TORSDOF 0
ENDMDL
