MODEL 1
REMARK minimizedAffinity 5.00011921
REMARK minimizedRMSD -1
REMARK  0 active torsions:
REMARK  status: ('A' for Active; 'I' for Inactive)
ROOT
ATOM      1  C   UNL d   1       0.446  -1.521   5.783  0.00  0.00     0.078 C 
ATOM      2  C1  UNL d   1       0.036  -2.963   5.810  0.00  0.00    -0.077 A 
ATOM      3  C2  UNL d   1       0.982  -3.984   5.663  0.00  0.00    -0.001 A 
ATOM      4  C3  UNL d   1       0.585  -5.322   5.680  0.00  0.00     0.003 A 
ATOM      5  C4  UNL d   1      -0.759  -5.651   5.843  0.00  0.00    -0.005 A 
ATOM      6  C5  UNL d   1      -1.708  -4.642   5.988  0.00  0.00     0.003 A 
ATOM      7  C6  UNL d   1      -1.313  -3.303   5.971  0.00  0.00    -0.001 A 
ENDROOT
TORSDOF 0
ENDMDL
