MODEL 1
REMARK minimizedAffinity 1.19145846
REMARK minimizedRMSD -1
REMARK  0 active torsions:
REMARK  status: ('A' for Active; 'I' for Inactive)
ROOT
ATOM      1  C   UNL d   1       4.000   1.896  -0.094  0.00  0.00     0.078 C 
ATOM      2  C1  UNL d   1       3.233   0.616  -0.252  0.00  0.00    -0.077 A 
ATOM      3  C2  UNL d   1       1.917   0.502   0.212  0.00  0.00    -0.001 A 
ATOM      4  C3  UNL d   1       1.219  -0.698   0.067  0.00  0.00     0.003 A 
ATOM      5  C4  UNL d   1       1.829  -1.793  -0.540  0.00  0.00    -0.005 A 
ATOM      6  C5  UNL d   1       3.140  -1.690  -1.002  0.00  0.00     0.003 A 
ATOM      7  C6  UNL d   1       3.839  -0.491  -0.858  0.00  0.00    -0.001 A 
ENDROOT
TORSDOF 0
ENDMDL
