MODEL 1
REMARK minimizedAffinity 7.26641941
REMARK minimizedRMSD -1
REMARK  0 active torsions:
REMARK  status: ('A' for Active; 'I' for Inactive)
ROOT
ATOM      1  C   UNL d   1      -1.044  -4.169  -1.080  0.00  0.00     0.078 C 
ATOM      2  C1  UNL d   1       0.136  -3.295  -0.776  0.00  0.00    -0.077 A 
ATOM      3  C2  UNL d   1       1.022  -3.615   0.260  0.00  0.00    -0.001 A 
ATOM      4  C3  UNL d   1       2.111  -2.788   0.539  0.00  0.00     0.003 A 
ATOM      5  C4  UNL d   1       2.323  -1.634  -0.213  0.00  0.00    -0.005 A 
ATOM      6  C5  UNL d   1       1.446  -1.306  -1.244  0.00  0.00     0.003 A 
ATOM      7  C6  UNL d   1       0.357  -2.132  -1.524  0.00  0.00    -0.001 A 
ENDROOT
TORSDOF 0
ENDMDL
