MODEL 1
REMARK minimizedAffinity -4.41459274
REMARK minimizedRMSD -1
REMARK  1 active torsions:
REMARK  status: ('A' for Active; 'I' for Inactive)
REMARK    1  A    between atoms: C1_2  and  C2_3 
ROOT
ATOM      1  C2  UNL d   1       0.057   0.311   0.321  0.00  0.00    -0.077 A 
ATOM      2  C3  UNL d   1       0.909   0.910  -0.618  0.00  0.00     0.002 A 
ATOM      3  C4  UNL d   1       0.986   2.301  -0.715  0.00  0.00     0.002 A 
ATOM      4  C5  UNL d   1       0.219   3.103   0.127  0.00  0.00    -0.004 A 
ATOM      5  C6  UNL d   1      -0.632   2.518   1.063  0.00  0.00     0.002 A 
ATOM      6  C7  UNL d   1      -0.712   1.128   1.160  0.00  0.00     0.002 A 
ENDROOT
BRANCH   1   7
ATOM      7  C1  UNL d   1       0.009  -1.188   0.461  0.00  0.00     0.055 C 
ATOM      8  C   UNL d   1       0.260  -1.877  -0.872  0.00  0.00     0.019 C 
ENDBRANCH   1   7
TORSDOF 1
ENDMDL
