MODEL 1
REMARK minimizedAffinity -5.4074626
REMARK minimizedRMSD -1
REMARK  1 active torsions:
REMARK  status: ('A' for Active; 'I' for Inactive)
REMARK    1  A    between atoms: C1_2  and  C2_3 
ROOT
ATOM      1  C2  UNL d   1      -1.424   1.892   1.749  0.00  0.00    -0.077 A 
ATOM      2  C3  UNL d   1      -1.307   0.719   0.990  0.00  0.00     0.002 A 
ATOM      3  C4  UNL d   1      -0.419   0.660  -0.086  0.00  0.00     0.002 A 
ATOM      4  C5  UNL d   1       0.361   1.768  -0.409  0.00  0.00    -0.004 A 
ATOM      5  C6  UNL d   1       0.251   2.939   0.338  0.00  0.00     0.002 A 
ATOM      6  C7  UNL d   1      -0.637   3.001   1.413  0.00  0.00     0.002 A 
ENDROOT
BRANCH   1   7
ATOM      7  C1  UNL d   1      -2.345   1.941   2.940  0.00  0.00     0.055 C 
ATOM      8  C   UNL d   1      -2.314   3.309   3.607  0.00  0.00     0.019 C 
ENDBRANCH   1   7
TORSDOF 1
ENDMDL
