MODEL 1
REMARK minimizedAffinity -3.72106814
REMARK minimizedRMSD -1
REMARK  1 active torsions:
REMARK  status: ('A' for Active; 'I' for Inactive)
REMARK    1  A    between atoms: C1_2  and  C2_3 
ROOT
ATOM      1  C2  UNL d   1      -0.343   0.283   0.222  0.00  0.00    -0.077 A 
ATOM      2  C3  UNL d   1       0.684   0.766  -0.601  0.00  0.00     0.002 A 
ATOM      3  C4  UNL d   1       0.873   2.140  -0.761  0.00  0.00     0.002 A 
ATOM      4  C5  UNL d   1       0.042   3.041  -0.098  0.00  0.00    -0.004 A 
ATOM      5  C6  UNL d   1      -0.983   2.570   0.721  0.00  0.00     0.002 A 
ATOM      6  C7  UNL d   1      -1.174   1.197   0.881  0.00  0.00     0.002 A 
ENDROOT
BRANCH   1   7
ATOM      7  C1  UNL d   1      -0.517  -1.198   0.434  0.00  0.00     0.055 C 
ATOM      8  C   UNL d   1      -0.219  -1.979  -0.837  0.00  0.00     0.019 C 
ENDBRANCH   1   7
TORSDOF 1
ENDMDL
