MODEL 1
REMARK minimizedAffinity 2.60939717
REMARK minimizedRMSD -1
REMARK  1 active torsions:
REMARK  status: ('A' for Active; 'I' for Inactive)
REMARK    1  A    between atoms: C1_2  and  C2_3 
ROOT
ATOM      1  C2  UNL d   1       0.841   2.290   0.921  0.00  0.00    -0.077 A 
ATOM      2  C3  UNL d   1       1.303   1.082   0.380  0.00  0.00     0.002 A 
ATOM      3  C4  UNL d   1       2.671   0.806   0.336  0.00  0.00     0.002 A 
ATOM      4  C5  UNL d   1       3.586   1.729   0.834  0.00  0.00    -0.004 A 
ATOM      5  C6  UNL d   1       3.137   2.934   1.373  0.00  0.00     0.002 A 
ATOM      6  C7  UNL d   1       1.770   3.213   1.417  0.00  0.00     0.002 A 
ENDROOT
BRANCH   1   7
ATOM      7  C1  UNL d   1      -0.637   2.569   1.014  0.00  0.00     0.055 C 
ATOM      8  C   UNL d   1      -1.261   2.714  -0.366  0.00  0.00     0.019 C 
ENDBRANCH   1   7
TORSDOF 1
ENDMDL
