MODEL 1
REMARK minimizedAffinity -5.23147345
REMARK minimizedRMSD -1
REMARK  1 active torsions:
REMARK  status: ('A' for Active; 'I' for Inactive)
REMARK    1  A    between atoms: C1_2  and  C2_3 
ROOT
ATOM      1  C2  UNL d   1       0.382   0.651   0.254  0.00  0.00    -0.077 A 
ATOM      2  C3  UNL d   1       1.738   1.004   0.317  0.00  0.00     0.002 A 
ATOM      3  C4  UNL d   1       2.121   2.346   0.284  0.00  0.00     0.002 A 
ATOM      4  C5  UNL d   1       1.155   3.346   0.191  0.00  0.00    -0.004 A 
ATOM      5  C6  UNL d   1      -0.196   3.005   0.126  0.00  0.00     0.002 A 
ATOM      6  C7  UNL d   1      -0.580   1.664   0.158  0.00  0.00     0.002 A 
ENDROOT
BRANCH   1   7
ATOM      7  C1  UNL d   1      -0.036  -0.793   0.340  0.00  0.00     0.055 C 
ATOM      8  C   UNL d   1       1.019  -1.634   1.044  0.00  0.00     0.019 C 
ENDBRANCH   1   7
TORSDOF 1
ENDMDL
