MODEL 1
REMARK minimizedAffinity 1.06562829
REMARK minimizedRMSD -1
REMARK  1 active torsions:
REMARK  status: ('A' for Active; 'I' for Inactive)
REMARK    1  A    between atoms: C1_2  and  C2_3 
ROOT
ATOM      1  C2  UNL d   1       0.085   0.987   0.519  0.00  0.00    -0.077 A 
ATOM      2  C3  UNL d   1      -1.054   1.792   0.384  0.00  0.00     0.002 A 
ATOM      3  C4  UNL d   1      -0.959   3.061  -0.191  0.00  0.00     0.002 A 
ATOM      4  C5  UNL d   1       0.273   3.534  -0.639  0.00  0.00    -0.004 A 
ATOM      5  C6  UNL d   1       1.412   2.742  -0.507  0.00  0.00     0.002 A 
ATOM      6  C7  UNL d   1       1.319   1.474   0.068  0.00  0.00     0.002 A 
ENDROOT
BRANCH   1   7
ATOM      7  C1  UNL d   1      -0.024  -0.401   1.094  0.00  0.00     0.055 C 
ATOM      8  C   UNL d   1       0.804  -1.397   0.295  0.00  0.00     0.019 C 
ENDBRANCH   1   7
TORSDOF 1
ENDMDL
