MODEL 1
REMARK minimizedAffinity -4.83278227
REMARK minimizedRMSD -1
REMARK  1 active torsions:
REMARK  status: ('A' for Active; 'I' for Inactive)
REMARK    1  A    between atoms: C1_2  and  C2_3 
ROOT
ATOM      1  C2  UNL d   1       0.724  -1.988  -0.549  0.00  0.00    -0.077 A 
ATOM      2  C3  UNL d   1      -0.502  -2.214   0.092  0.00  0.00     0.002 A 
ATOM      3  C4  UNL d   1      -1.462  -3.044  -0.491  0.00  0.00     0.002 A 
ATOM      4  C5  UNL d   1      -1.204  -3.656  -1.716  0.00  0.00    -0.004 A 
ATOM      5  C6  UNL d   1       0.011  -3.435  -2.363  0.00  0.00     0.002 A 
ATOM      6  C7  UNL d   1       0.971  -2.606  -1.782  0.00  0.00     0.002 A 
ENDROOT
BRANCH   1   7
ATOM      7  C1  UNL d   1       1.779  -1.133   0.102  0.00  0.00     0.055 C 
ATOM      8  C   UNL d   1       1.524   0.347  -0.146  0.00  0.00     0.019 C 
ENDBRANCH   1   7
TORSDOF 1
ENDMDL
