MODEL 1
REMARK minimizedAffinity -5.55538511
REMARK minimizedRMSD -1
REMARK  1 active torsions:
REMARK  status: ('A' for Active; 'I' for Inactive)
REMARK    1  A    between atoms: C1_2  and  C2_3 
ROOT
ATOM      1  C2  UNL d   1      -0.414   0.170  -0.100  0.00  0.00    -0.077 A 
ATOM      2  C3  UNL d   1      -0.519  -0.213  -1.444  0.00  0.00     0.002 A 
ATOM      3  C4  UNL d   1      -0.840  -1.529  -1.782  0.00  0.00     0.002 A 
ATOM      4  C5  UNL d   1      -1.063  -2.472  -0.781  0.00  0.00    -0.004 A 
ATOM      5  C6  UNL d   1      -0.960  -2.102   0.560  0.00  0.00     0.002 A 
ATOM      6  C7  UNL d   1      -0.638  -0.787   0.899  0.00  0.00     0.002 A 
ENDROOT
BRANCH   1   7
ATOM      7  C1  UNL d   1      -0.117   1.600   0.267  0.00  0.00     0.055 C 
ATOM      8  C   UNL d   1      -1.216   2.188   1.139  0.00  0.00     0.019 C 
ENDBRANCH   1   7
TORSDOF 1
ENDMDL
