MODEL 1
REMARK minimizedAffinity -5.45809031
REMARK minimizedRMSD -1
REMARK  1 active torsions:
REMARK  status: ('A' for Active; 'I' for Inactive)
REMARK    1  A    between atoms: C1_2  and  C2_3 
ROOT
ATOM      1  C2  UNL d   1       1.343  -1.970   1.285  0.00  0.00    -0.081 A 
ATOM      2  C3  UNL d   1       1.937  -1.100   0.362  0.00  0.00     0.006 A 
ATOM      3  C4  UNL d   1       1.176  -0.117  -0.275  0.00  0.00     0.002 A 
ATOM      4  C5  UNL d   1      -0.188   0.018   0.005  0.00  0.00    -0.080 A 
ATOM      5  C6  UNL d   1      -1.009   1.089  -0.650  0.00  0.00     0.076 C 
ATOM      6  C7  UNL d   1      -0.785  -0.862   0.914  0.00  0.00     0.002 A 
ATOM      7  C8  UNL d   1      -0.025  -1.846   1.551  0.00  0.00     0.006 A 
ENDROOT
BRANCH   1   8
ATOM      8  C1  UNL d   1       2.174  -2.988   2.022  0.00  0.00     0.054 C 
ATOM      9  C   UNL d   1       3.290  -2.323   2.816  0.00  0.00     0.018 C 
ENDBRANCH   1   8
TORSDOF 1
ENDMDL
