MODEL 1
REMARK minimizedAffinity -4.86132383
REMARK minimizedRMSD -1
REMARK  1 active torsions:
REMARK  status: ('A' for Active; 'I' for Inactive)
REMARK    1  A    between atoms: C1_2  and  C2_3 
ROOT
ATOM      1  C2  UNL d   1      -0.716   0.393  -0.128  0.00  0.00    -0.081 A 
ATOM      2  C3  UNL d   1       0.621   0.188  -0.492  0.00  0.00     0.006 A 
ATOM      3  C4  UNL d   1       1.340  -0.891   0.030  0.00  0.00     0.002 A 
ATOM      4  C5  UNL d   1       0.732  -1.786   0.916  0.00  0.00    -0.080 A 
ATOM      5  C6  UNL d   1       1.483  -2.965   1.459  0.00  0.00     0.076 C 
ATOM      6  C7  UNL d   1      -0.598  -1.572   1.293  0.00  0.00     0.002 A 
ATOM      7  C8  UNL d   1      -1.317  -0.493   0.772  0.00  0.00     0.006 A 
ENDROOT
BRANCH   1   8
ATOM      8  C1  UNL d   1      -1.512   1.517  -0.739  0.00  0.00     0.054 C 
ATOM      9  C   UNL d   1      -1.806   1.253  -2.209  0.00  0.00     0.018 C 
ENDBRANCH   1   8
TORSDOF 1
ENDMDL
