MODEL 1
REMARK minimizedAffinity -5.94598675
REMARK minimizedRMSD -1
REMARK  1 active torsions:
REMARK  status: ('A' for Active; 'I' for Inactive)
REMARK    1  A    between atoms: C1_2  and  C2_3 
ROOT
ATOM      1  C2  UNL d   1       0.151  -1.713   1.885  0.00  0.00    -0.081 A 
ATOM      2  C3  UNL d   1       1.296  -2.317   1.352  0.00  0.00     0.006 A 
ATOM      3  C4  UNL d   1       1.877  -1.824   0.181  0.00  0.00     0.002 A 
ATOM      4  C5  UNL d   1       1.327  -0.716  -0.472  0.00  0.00    -0.080 A 
ATOM      5  C6  UNL d   1       1.958  -0.159  -1.713  0.00  0.00     0.076 C 
ATOM      6  C7  UNL d   1       0.172  -0.124   0.051  0.00  0.00     0.002 A 
ATOM      7  C8  UNL d   1      -0.409  -0.616   1.221  0.00  0.00     0.006 A 
ENDROOT
BRANCH   1   8
ATOM      8  C1  UNL d   1      -0.440  -2.202   3.183  0.00  0.00     0.054 C 
ATOM      9  C   UNL d   1      -1.831  -1.627   3.409  0.00  0.00     0.018 C 
ENDBRANCH   1   8
TORSDOF 1
ENDMDL
