MODEL 1
REMARK minimizedAffinity -4.43373775
REMARK minimizedRMSD -1
REMARK  1 active torsions:
REMARK  status: ('A' for Active; 'I' for Inactive)
REMARK    1  A    between atoms: C1_2  and  C2_3 
ROOT
ATOM      1  C2  UNL d   1       0.251   0.292  -0.184  0.00  0.00    -0.081 A 
ATOM      2  C3  UNL d   1       1.509  -0.301  -0.349  0.00  0.00     0.006 A 
ATOM      3  C4  UNL d   1       1.785  -1.546   0.222  0.00  0.00     0.002 A 
ATOM      4  C5  UNL d   1       0.807  -2.222   0.959  0.00  0.00    -0.080 A 
ATOM      5  C6  UNL d   1       1.081  -3.572   1.551  0.00  0.00     0.076 C 
ATOM      6  C7  UNL d   1      -0.444  -1.622   1.138  0.00  0.00     0.002 A 
ATOM      7  C8  UNL d   1      -0.721  -0.377   0.568  0.00  0.00     0.006 A 
ENDROOT
BRANCH   1   8
ATOM      8  C1  UNL d   1      -0.071   1.604  -0.852  0.00  0.00     0.054 C 
ATOM      9  C   UNL d   1      -1.388   1.530  -1.611  0.00  0.00     0.018 C 
ENDBRANCH   1   8
TORSDOF 1
ENDMDL
