MODEL 1
REMARK minimizedAffinity -5.72093248
REMARK minimizedRMSD -1
REMARK  1 active torsions:
REMARK  status: ('A' for Active; 'I' for Inactive)
REMARK    1  A    between atoms: C1_2  and  C2_3 
ROOT
ATOM      1  C2  UNL d   1       0.294  -1.246   1.286  0.00  0.00    -0.081 A 
ATOM      2  C3  UNL d   1       1.558  -1.842   1.207  0.00  0.00     0.006 A 
ATOM      3  C4  UNL d   1       1.870  -2.949   2.000  0.00  0.00     0.002 A 
ATOM      4  C5  UNL d   1       0.921  -3.483   2.879  0.00  0.00    -0.080 A 
ATOM      5  C6  UNL d   1       1.232  -4.689   3.713  0.00  0.00     0.076 C 
ATOM      6  C7  UNL d   1      -0.337  -2.876   2.971  0.00  0.00     0.002 A 
ATOM      7  C8  UNL d   1      -0.649  -1.769   2.178  0.00  0.00     0.006 A 
ENDROOT
BRANCH   1   8
ATOM      8  C1  UNL d   1      -0.067  -0.092   0.386  0.00  0.00     0.054 C 
ATOM      9  C   UNL d   1       1.156   0.441  -0.347  0.00  0.00     0.018 C 
ENDBRANCH   1   8
TORSDOF 1
ENDMDL
