MODEL 1
REMARK minimizedAffinity -4.93277597
REMARK minimizedRMSD -1
REMARK  1 active torsions:
REMARK  status: ('A' for Active; 'I' for Inactive)
REMARK    1  A    between atoms: C1_2  and  C2_3 
ROOT
ATOM      1  C2  UNL d   1       0.168  -0.467   0.157  0.00  0.00    -0.081 A 
ATOM      2  C3  UNL d   1      -0.531  -0.837   1.313  0.00  0.00     0.006 A 
ATOM      3  C4  UNL d   1      -0.156  -1.973   2.034  0.00  0.00     0.002 A 
ATOM      4  C5  UNL d   1       0.928  -2.753   1.616  0.00  0.00    -0.080 A 
ATOM      5  C6  UNL d   1       1.360  -3.959   2.397  0.00  0.00     0.076 C 
ATOM      6  C7  UNL d   1       1.615  -2.394   0.451  0.00  0.00     0.002 A 
ATOM      7  C8  UNL d   1       1.240  -1.258  -0.270  0.00  0.00     0.006 A 
ENDROOT
BRANCH   1   8
ATOM      8  C1  UNL d   1      -0.193   0.794  -0.586  0.00  0.00     0.054 C 
ATOM      9  C   UNL d   1      -1.240   1.600   0.169  0.00  0.00     0.018 C 
ENDBRANCH   1   8
TORSDOF 1
ENDMDL
