MODEL 1
REMARK minimizedAffinity -3.00085902
REMARK minimizedRMSD -1
REMARK  1 active torsions:
REMARK  status: ('A' for Active; 'I' for Inactive)
REMARK    1  A    between atoms: C1_2  and  C2_3 
ROOT
ATOM      1  C2  UNL d   1      -0.714   3.843  -3.836  0.00  0.00    -0.081 A 
ATOM      2  C3  UNL d   1      -0.521   3.724  -2.454  0.00  0.00     0.006 A 
ATOM      3  C4  UNL d   1      -1.318   2.859  -1.700  0.00  0.00     0.002 A 
ATOM      4  C5  UNL d   1      -2.315   2.095  -2.315  0.00  0.00    -0.080 A 
ATOM      5  C6  UNL d   1      -3.157   1.140  -1.522  0.00  0.00     0.076 C 
ATOM      6  C7  UNL d   1      -2.519   2.227  -3.693  0.00  0.00     0.002 A 
ATOM      7  C8  UNL d   1      -1.723   3.092  -4.447  0.00  0.00     0.006 A 
ENDROOT
BRANCH   1   8
ATOM      8  C1  UNL d   1       0.187   4.726  -4.662  0.00  0.00     0.054 C 
ATOM      9  C   UNL d   1       0.565   5.992  -3.906  0.00  0.00     0.018 C 
ENDBRANCH   1   8
TORSDOF 1
ENDMDL
