MODEL 1
REMARK minimizedAffinity -2.98073196
REMARK minimizedRMSD -1
REMARK  1 active torsions:
REMARK  status: ('A' for Active; 'I' for Inactive)
REMARK    1  A    between atoms: C1_2  and  C2_3 
ROOT
ATOM      1  C2  UNL d   1      -1.064   0.683  -1.289  0.00  0.00    -0.081 A 
ATOM      2  C3  UNL d   1      -0.012   1.426  -0.739  0.00  0.00     0.006 A 
ATOM      3  C4  UNL d   1       1.102   0.782  -0.195  0.00  0.00     0.002 A 
ATOM      4  C5  UNL d   1       1.186  -0.615  -0.199  0.00  0.00    -0.080 A 
ATOM      5  C6  UNL d   1       2.389  -1.318   0.354  0.00  0.00     0.076 C 
ATOM      6  C7  UNL d   1       0.127  -1.358  -0.732  0.00  0.00     0.002 A 
ATOM      7  C8  UNL d   1      -0.987  -0.714  -1.275  0.00  0.00     0.006 A 
ENDROOT
BRANCH   1   8
ATOM      8  C1  UNL d   1      -2.237   1.376  -1.934  0.00  0.00     0.054 C 
ATOM      9  C   UNL d   1      -2.014   1.565  -3.428  0.00  0.00     0.018 C 
ENDBRANCH   1   8
TORSDOF 1
ENDMDL
