MODEL 1
REMARK minimizedAffinity -3.72949147
REMARK minimizedRMSD -1
REMARK  1 active torsions:
REMARK  status: ('A' for Active; 'I' for Inactive)
REMARK    1  A    between atoms: C1_2  and  C2_3 
ROOT
ATOM      1  C2  UNL d   1       0.792  -0.801  -0.389  0.00  0.00    -0.081 A 
ATOM      2  C3  UNL d   1       0.901  -1.098  -1.753  0.00  0.00     0.006 A 
ATOM      3  C4  UNL d   1      -0.035  -0.602  -2.663  0.00  0.00     0.002 A 
ATOM      4  C5  UNL d   1      -1.090   0.206  -2.226  0.00  0.00    -0.080 A 
ATOM      5  C6  UNL d   1      -2.085   0.771  -3.197  0.00  0.00     0.076 C 
ATOM      6  C7  UNL d   1      -1.209   0.489  -0.861  0.00  0.00     0.002 A 
ATOM      7  C8  UNL d   1      -0.274  -0.008   0.049  0.00  0.00     0.006 A 
ENDROOT
BRANCH   1   8
ATOM      8  C1  UNL d   1       1.837  -1.281   0.586  0.00  0.00     0.054 C 
ATOM      9  C   UNL d   1       1.437  -2.608   1.216  0.00  0.00     0.018 C 
ENDBRANCH   1   8
TORSDOF 1
ENDMDL
