MODEL 1
REMARK minimizedAffinity -4.42465305
REMARK minimizedRMSD -1
REMARK  1 active torsions:
REMARK  status: ('A' for Active; 'I' for Inactive)
REMARK    1  A    between atoms: C1_2  and  C2_3 
ROOT
ATOM      1  C2  UNL d   1       0.213  -0.067  -0.025  0.00  0.00    -0.081 A 
ATOM      2  C3  UNL d   1      -0.642  -0.785  -0.870  0.00  0.00     0.006 A 
ATOM      3  C4  UNL d   1      -1.502  -0.113  -1.742  0.00  0.00     0.002 A 
ATOM      4  C5  UNL d   1      -1.516   1.285  -1.790  0.00  0.00    -0.080 A 
ATOM      5  C6  UNL d   1      -2.412   2.017  -2.743  0.00  0.00     0.076 C 
ATOM      6  C7  UNL d   1      -0.673   2.002  -0.933  0.00  0.00     0.002 A 
ATOM      7  C8  UNL d   1       0.186   1.331  -0.060  0.00  0.00     0.006 A 
ENDROOT
BRANCH   1   8
ATOM      8  C1  UNL d   1       1.188  -0.789   0.870  0.00  0.00     0.054 C 
ATOM      9  C   UNL d   1       0.496  -1.347   2.105  0.00  0.00     0.018 C 
ENDBRANCH   1   8
TORSDOF 1
ENDMDL
