MODEL 1
REMARK minimizedAffinity -4.22158051
REMARK minimizedRMSD -1
REMARK  1 active torsions:
REMARK  status: ('A' for Active; 'I' for Inactive)
REMARK    1  A    between atoms: C1_2  and  C2_3 
ROOT
ATOM      1  C2  UNL d   1       0.052  -1.412   1.946  0.00  0.00    -0.081 A 
ATOM      2  C3  UNL d   1       1.374  -1.782   1.672  0.00  0.00     0.006 A 
ATOM      3  C4  UNL d   1       2.014  -1.321   0.519  0.00  0.00     0.002 A 
ATOM      4  C5  UNL d   1       1.346  -0.476  -0.374  0.00  0.00    -0.080 A 
ATOM      5  C6  UNL d   1       2.032   0.051  -1.599  0.00  0.00     0.076 C 
ATOM      6  C7  UNL d   1       0.020  -0.120  -0.109  0.00  0.00     0.002 A 
ATOM      7  C8  UNL d   1      -0.621  -0.581   1.043  0.00  0.00     0.006 A 
ENDROOT
BRANCH   1   8
ATOM      8  C1  UNL d   1      -0.620  -1.855   3.220  0.00  0.00     0.054 C 
ATOM      9  C   UNL d   1       0.199  -1.464   4.442  0.00  0.00     0.018 C 
ENDBRANCH   1   8
TORSDOF 1
ENDMDL
