MODEL 1
REMARK minimizedAffinity -3.74844384
REMARK minimizedRMSD -1
REMARK  1 active torsions:
REMARK  status: ('A' for Active; 'I' for Inactive)
REMARK    1  A    between atoms: C1_2  and  C2_3 
ROOT
ATOM      1  C2  UNL d   1       0.970  -0.532  -0.224  0.00  0.00    -0.081 A 
ATOM      2  C3  UNL d   1       0.625  -0.877  -1.536  0.00  0.00     0.006 A 
ATOM      3  C4  UNL d   1      -0.334  -0.139  -2.234  0.00  0.00     0.002 A 
ATOM      4  C5  UNL d   1      -0.958   0.960  -1.634  0.00  0.00    -0.080 A 
ATOM      5  C6  UNL d   1      -1.967   1.780  -2.383  0.00  0.00     0.076 C 
ATOM      6  C7  UNL d   1      -0.626   1.294  -0.317  0.00  0.00     0.002 A 
ATOM      7  C8  UNL d   1       0.332   0.556   0.381  0.00  0.00     0.006 A 
ENDROOT
BRANCH   1   8
ATOM      8  C1  UNL d   1       2.050  -1.287   0.508  0.00  0.00     0.054 C 
ATOM      9  C   UNL d   1       1.631  -1.606   1.936  0.00  0.00     0.018 C 
ENDBRANCH   1   8
TORSDOF 1
ENDMDL
