MODEL 1
REMARK minimizedAffinity 7.99906301
REMARK minimizedRMSD -1
REMARK  0 active torsions:
REMARK  status: ('A' for Active; 'I' for Inactive)
ROOT
ATOM      1  C1  BNZ d   1       0.313  -3.803   1.310  0.00  0.00     0.000 A 
ATOM      2  C2  BNZ d   1      -0.984  -3.408   1.501  0.00  0.00     0.000 A 
ATOM      3  C3  BNZ d   1      -1.330  -2.087   1.442  0.00  0.00     0.000 A 
ATOM      4  C4  BNZ d   1      -0.372  -1.160   1.233  0.00  0.00     0.000 A 
ATOM      5  C5  BNZ d   1       0.941  -1.541   1.047  0.00  0.00     0.000 A 
ATOM      6  C6  BNZ d   1       1.279  -2.875   1.068  0.00  0.00     0.000 A 
ENDROOT
TORSDOF 0
ENDMDL
