MODEL 1
REMARK minimizedAffinity 6.86389446
REMARK minimizedRMSD -1
REMARK  0 active torsions:
REMARK  status: ('A' for Active; 'I' for Inactive)
ROOT
ATOM      1  C1  BNZ d   1       1.679  -0.358   2.335  0.00  0.00     0.000 A 
ATOM      2  C2  BNZ d   1       1.088  -0.532   3.557  0.00  0.00     0.000 A 
ATOM      3  C3  BNZ d   1       0.625  -1.759   3.943  0.00  0.00     0.000 A 
ATOM      4  C4  BNZ d   1       0.718  -2.800   3.090  0.00  0.00     0.000 A 
ATOM      5  C5  BNZ d   1       1.303  -2.638   1.850  0.00  0.00     0.000 A 
ATOM      6  C6  BNZ d   1       1.803  -1.410   1.481  0.00  0.00     0.000 A 
ENDROOT
TORSDOF 0
ENDMDL
