MODEL 1
REMARK minimizedAffinity 4.93922377
REMARK minimizedRMSD -1
REMARK  0 active torsions:
REMARK  status: ('A' for Active; 'I' for Inactive)
ROOT
ATOM      1  C1  BNZ d   1       1.518  -0.093   1.930  0.00  0.00     0.000 A 
ATOM      2  C2  BNZ d   1       0.638  -0.217   2.972  0.00  0.00     0.000 A 
ATOM      3  C3  BNZ d   1       0.600  -1.359   3.723  0.00  0.00     0.000 A 
ATOM      4  C4  BNZ d   1       1.412  -2.388   3.407  0.00  0.00     0.000 A 
ATOM      5  C5  BNZ d   1       2.298  -2.282   2.353  0.00  0.00     0.000 A 
ATOM      6  C6  BNZ d   1       2.361  -1.117   1.624  0.00  0.00     0.000 A 
ENDROOT
TORSDOF 0
ENDMDL
