MODEL 1
REMARK minimizedAffinity 1.99531829
REMARK minimizedRMSD -1
REMARK  0 active torsions:
REMARK  status: ('A' for Active; 'I' for Inactive)
ROOT
ATOM      1  C1  BNZ d   1      -4.592  -3.706  -4.136  0.00  0.00     0.000 A 
ATOM      2  C2  BNZ d   1      -5.338  -3.720  -5.284  0.00  0.00     0.000 A 
ATOM      3  C3  BNZ d   1      -5.499  -4.873  -6.000  0.00  0.00     0.000 A 
ATOM      4  C4  BNZ d   1      -4.882  -6.000  -5.590  0.00  0.00     0.000 A 
ATOM      5  C5  BNZ d   1      -4.119  -6.000  -4.439  0.00  0.00     0.000 A 
ATOM      6  C6  BNZ d   1      -3.991  -4.846  -3.700  0.00  0.00     0.000 A 
ENDROOT
TORSDOF 0
ENDMDL
