MODEL 1
REMARK minimizedAffinity 1.08973551
REMARK minimizedRMSD -1
REMARK  0 active torsions:
REMARK  status: ('A' for Active; 'I' for Inactive)
ROOT
ATOM      1  C1  BNZ d   1       3.235  -1.721   1.660  0.00  0.00     0.000 A 
ATOM      2  C2  BNZ d   1       2.396  -2.262   2.597  0.00  0.00     0.000 A 
ATOM      3  C3  BNZ d   1       1.145  -1.748   2.795  0.00  0.00     0.000 A 
ATOM      4  C4  BNZ d   1       0.750  -0.672   2.085  0.00  0.00     0.000 A 
ATOM      5  C5  BNZ d   1       1.588  -0.110   1.143  0.00  0.00     0.000 A 
ATOM      6  C6  BNZ d   1       2.832  -0.654   0.919  0.00  0.00     0.000 A 
ENDROOT
TORSDOF 0
ENDMDL
