MODEL 1
REMARK minimizedAffinity 5.83999395
REMARK minimizedRMSD -1
REMARK  0 active torsions:
REMARK  status: ('A' for Active; 'I' for Inactive)
ROOT
ATOM      1  C1  BNZ d   1       0.890  -1.022   2.703  0.00  0.00     0.000 A 
ATOM      2  C2  BNZ d   1       1.337   0.036   1.957  0.00  0.00     0.000 A 
ATOM      3  C3  BNZ d   1       2.094  -0.168   0.837  0.00  0.00     0.000 A 
ATOM      4  C4  BNZ d   1       2.438  -1.425   0.489  0.00  0.00     0.000 A 
ATOM      5  C5  BNZ d   1       2.003  -2.501   1.237  0.00  0.00     0.000 A 
ATOM      6  C6  BNZ d   1       1.208  -2.294   2.341  0.00  0.00     0.000 A 
ENDROOT
TORSDOF 0
ENDMDL
