MODEL 1
REMARK minimizedAffinity 7.7758832
REMARK minimizedRMSD -1
REMARK  0 active torsions:
REMARK  status: ('A' for Active; 'I' for Inactive)
ROOT
ATOM      1  C1  BNZ d   1       5.284  -1.043  -3.878  0.00  0.00     0.000 A 
ATOM      2  C2  BNZ d   1       4.224  -1.179  -3.023  0.00  0.00     0.000 A 
ATOM      3  C3  BNZ d   1       3.095  -0.424  -3.180  0.00  0.00     0.000 A 
ATOM      4  C4  BNZ d   1       3.045   0.494  -4.167  0.00  0.00     0.000 A 
ATOM      5  C5  BNZ d   1       4.109   0.651  -5.032  0.00  0.00     0.000 A 
ATOM      6  C6  BNZ d   1       5.228  -0.139  -4.894  0.00  0.00     0.000 A 
ENDROOT
TORSDOF 0
ENDMDL
