MODEL 1
REMARK minimizedAffinity 3.10390973
REMARK minimizedRMSD -1
REMARK  0 active torsions:
REMARK  status: ('A' for Active; 'I' for Inactive)
ROOT
ATOM      1  C1  BNZ d   1      -0.441  -2.265  -1.903  0.00  0.00     0.000 A 
ATOM      2  C2  BNZ d   1      -1.461  -2.010  -1.026  0.00  0.00     0.000 A 
ATOM      3  C3  BNZ d   1      -1.219  -1.887   0.313  0.00  0.00     0.000 A 
ATOM      4  C4  BNZ d   1       0.035  -2.059   0.779  0.00  0.00     0.000 A 
ATOM      5  C5  BNZ d   1       1.073  -2.326  -0.091  0.00  0.00     0.000 A 
ATOM      6  C6  BNZ d   1       0.832  -2.410  -1.443  0.00  0.00     0.000 A 
ENDROOT
TORSDOF 0
ENDMDL
