MODEL 1
REMARK minimizedAffinity 3.51565433
REMARK minimizedRMSD -1
REMARK  0 active torsions:
REMARK  status: ('A' for Active; 'I' for Inactive)
ROOT
ATOM      1  N1  IND d   1      -1.673   0.692   2.309  0.00  0.00    -0.196 N 
ATOM      2  C2  IND d   1      -0.495   1.247   2.727  0.00  0.00     0.054 A 
ATOM      3  C3  IND d   1      -0.562   2.595   2.664  0.00  0.00    -0.031 A 
ATOM      4  C4  IND d   1      -2.539   4.106   2.003  0.00  0.00     0.051 A 
ATOM      5  C5  IND d   1      -3.814   4.059   1.512  0.00  0.00    -0.031 A 
ATOM      6  C6  IND d   1      -4.454   2.863   1.259  0.00  0.00     0.015 A 
ATOM      7  C7  IND d   1      -3.844   1.664   1.500  0.00  0.00    -0.016 A 
ATOM      8  C8  IND d   1      -2.548   1.708   1.992  0.00  0.00    -0.047 A 
ATOM      9  C9  IND d   1      -1.878   2.919   2.210  0.00  0.00    -0.096 A 
ATOM     10  HN1 IND d   1      -1.840  -0.150   2.254  0.00  0.00     0.298 HD
ENDROOT
TORSDOF 0
ENDMDL
