MODEL 1
REMARK minimizedAffinity 10.9598455
REMARK minimizedRMSD -1
REMARK  0 active torsions:
REMARK  status: ('A' for Active; 'I' for Inactive)
ROOT
ATOM      1  N1  IND d   1       4.371   0.285  -1.807  0.00  0.00    -0.196 N 
ATOM      2  C2  IND d   1       4.172   1.129  -0.750  0.00  0.00     0.054 A 
ATOM      3  C3  IND d   1       3.289   0.592   0.121  0.00  0.00    -0.031 A 
ATOM      4  C4  IND d   1       2.123  -1.703   0.063  0.00  0.00     0.051 A 
ATOM      5  C5  IND d   1       1.962  -2.809  -0.723  0.00  0.00    -0.031 A 
ATOM      6  C6  IND d   1       2.611  -2.945  -1.933  0.00  0.00     0.015 A 
ATOM      7  C7  IND d   1       3.458  -1.980  -2.400  0.00  0.00    -0.016 A 
ATOM      8  C8  IND d   1       3.618  -0.852  -1.608  0.00  0.00    -0.047 A 
ATOM      9  C9  IND d   1       2.930  -0.689  -0.399  0.00  0.00    -0.096 A 
ATOM     10  HN1 IND d   1       4.881   0.438  -2.482  0.00  0.00     0.298 HD
ENDROOT
TORSDOF 0
ENDMDL
