MODEL 1
REMARK minimizedAffinity 16.4393101
REMARK minimizedRMSD -1
REMARK  0 active torsions:
REMARK  status: ('A' for Active; 'I' for Inactive)
ROOT
ATOM      1  N1  IND d   1      -5.070   1.335  -0.519  0.00  0.00    -0.196 N 
ATOM      2  C2  IND d   1      -5.244  -0.004  -0.734  0.00  0.00     0.054 A 
ATOM      3  C3  IND d   1      -5.651  -0.227  -2.004  0.00  0.00    -0.031 A 
ATOM      4  C4  IND d   1      -5.999   1.447  -3.929  0.00  0.00     0.051 A 
ATOM      5  C5  IND d   1      -5.999   2.785  -4.205  0.00  0.00    -0.031 A 
ATOM      6  C6  IND d   1      -5.680   3.727  -3.249  0.00  0.00     0.015 A 
ATOM      7  C7  IND d   1      -5.336   3.364  -1.977  0.00  0.00    -0.016 A 
ATOM      8  C8  IND d   1      -5.342   2.006  -1.691  0.00  0.00    -0.047 A 
ATOM      9  C9  IND d   1      -5.707   1.048  -2.646  0.00  0.00    -0.096 A 
ATOM     10  HN1 IND d   1      -4.830   1.697   0.223  0.00  0.00     0.298 HD
ENDROOT
TORSDOF 0
ENDMDL
