MODEL 1
REMARK minimizedAffinity 7.12378645
REMARK minimizedRMSD -1
REMARK  0 active torsions:
REMARK  status: ('A' for Active; 'I' for Inactive)
ROOT
ATOM      1  N1  IND d   1       2.167  -2.578   0.523  0.00  0.00    -0.196 N 
ATOM      2  C2  IND d   1       2.806  -1.458   0.071  0.00  0.00     0.054 A 
ATOM      3  C3  IND d   1       2.221  -1.007  -1.061  0.00  0.00    -0.031 A 
ATOM      4  C4  IND d   1       0.140  -1.893  -2.291  0.00  0.00     0.051 A 
ATOM      5  C5  IND d   1      -0.764  -2.917  -2.278  0.00  0.00    -0.031 A 
ATOM      6  C6  IND d   1      -0.739  -3.900  -1.310  0.00  0.00     0.015 A 
ATOM      7  C7  IND d   1       0.189  -3.888  -0.307  0.00  0.00    -0.016 A 
ATOM      8  C8  IND d   1       1.113  -2.853  -0.321  0.00  0.00    -0.047 A 
ATOM      9  C9  IND d   1       1.119  -1.876  -1.325  0.00  0.00    -0.096 A 
ATOM     10  HN1 IND d   1       2.386  -3.035   1.218  0.00  0.00     0.298 HD
ENDROOT
TORSDOF 0
ENDMDL
