MODEL 1
REMARK minimizedAffinity 9.48038673
REMARK minimizedRMSD -1
REMARK  0 active torsions:
REMARK  status: ('A' for Active; 'I' for Inactive)
ROOT
ATOM      1  N1  IND d   1       0.134  -0.068   3.024  0.00  0.00    -0.196 N 
ATOM      2  C2  IND d   1       1.108   0.114   3.966  0.00  0.00     0.054 A 
ATOM      3  C3  IND d   1       1.280   1.431   4.216  0.00  0.00    -0.031 A 
ATOM      4  C4  IND d   1       0.003   3.456   3.270  0.00  0.00     0.051 A 
ATOM      5  C5  IND d   1      -0.951   3.795   2.351  0.00  0.00    -0.031 A 
ATOM      6  C6  IND d   1      -1.607   2.843   1.597  0.00  0.00     0.015 A 
ATOM      7  C7  IND d   1      -1.340   1.511   1.742  0.00  0.00    -0.016 A 
ATOM      8  C8  IND d   1      -0.368   1.164   2.668  0.00  0.00    -0.047 A 
ATOM      9  C9  IND d   1       0.332   2.128   3.406  0.00  0.00    -0.096 A 
ATOM     10  HN1 IND d   1      -0.122  -0.826   2.708  0.00  0.00     0.298 HD
ENDROOT
TORSDOF 0
ENDMDL
