MODEL 1
REMARK minimizedAffinity 2.56163621
REMARK minimizedRMSD -1
REMARK  0 active torsions:
REMARK  status: ('A' for Active; 'I' for Inactive)
ROOT
ATOM      1  N1  IND d   1       2.766   1.241  -0.649  0.00  0.00    -0.196 N 
ATOM      2  C2  IND d   1       3.935   1.686  -0.097  0.00  0.00     0.054 A 
ATOM      3  C3  IND d   1       3.728   2.099   1.173  0.00  0.00    -0.031 A 
ATOM      4  C4  IND d   1       1.574   2.039   2.582  0.00  0.00     0.051 A 
ATOM      5  C5  IND d   1       0.241   1.751   2.500  0.00  0.00    -0.031 A 
ATOM      6  C6  IND d   1      -0.330   1.266   1.341  0.00  0.00     0.015 A 
ATOM      7  C7  IND d   1       0.416   1.039   0.220  0.00  0.00    -0.016 A 
ATOM      8  C8  IND d   1       1.770   1.337   0.298  0.00  0.00    -0.047 A 
ATOM      9  C9  IND d   1       2.347   1.869   1.458  0.00  0.00    -0.096 A 
ATOM     10  HN1 IND d   1       2.669   0.950  -1.452  0.00  0.00     0.298 HD
ENDROOT
TORSDOF 0
ENDMDL
