MODEL 1
REMARK minimizedAffinity 10.2946234
REMARK minimizedRMSD -1
REMARK  0 active torsions:
REMARK  status: ('A' for Active; 'I' for Inactive)
ROOT
ATOM      1  N1  IND d   1       3.218  -1.915   0.847  0.00  0.00    -0.196 N 
ATOM      2  C2  IND d   1       2.221  -2.189  -0.046  0.00  0.00     0.054 A 
ATOM      3  C3  IND d   1       2.227  -1.285  -1.051  0.00  0.00    -0.031 A 
ATOM      4  C4  IND d   1       3.849   0.667  -1.485  0.00  0.00     0.051 A 
ATOM      5  C5  IND d   1       4.901   1.337  -0.927  0.00  0.00    -0.031 A 
ATOM      6  C6  IND d   1       5.459   0.948   0.274  0.00  0.00     0.015 A 
ATOM      7  C7  IND d   1       4.991  -0.138   0.958  0.00  0.00    -0.016 A 
ATOM      8  C8  IND d   1       3.918  -0.816   0.399  0.00  0.00    -0.047 A 
ATOM      9  C9  IND d   1       3.320  -0.401  -0.798  0.00  0.00    -0.096 A 
ATOM     10  HN1 IND d   1       3.381  -2.355   1.568  0.00  0.00     0.298 HD
ENDROOT
TORSDOF 0
ENDMDL
