MODEL 1
REMARK minimizedAffinity 5.97445393
REMARK minimizedRMSD -1
REMARK  0 active torsions:
REMARK  status: ('A' for Active; 'I' for Inactive)
ROOT
ATOM      1  N1  IND d   1       4.814   1.499   0.374  0.00  0.00    -0.196 N 
ATOM      2  C2  IND d   1       5.830   2.191  -0.224  0.00  0.00     0.054 A 
ATOM      3  C3  IND d   1       6.000   1.770  -1.498  0.00  0.00    -0.031 A 
ATOM      4  C4  IND d   1       4.657   0.030  -2.838  0.00  0.00     0.051 A 
ATOM      5  C5  IND d   1       3.657  -0.892  -2.707  0.00  0.00    -0.031 A 
ATOM      6  C6  IND d   1       2.976  -1.067  -1.520  0.00  0.00     0.015 A 
ATOM      7  C7  IND d   1       3.264  -0.314  -0.417  0.00  0.00    -0.016 A 
ATOM      8  C8  IND d   1       4.283   0.619  -0.544  0.00  0.00    -0.047 A 
ATOM      9  C9  IND d   1       5.006   0.771  -1.734  0.00  0.00    -0.096 A 
ATOM     10  HN1 IND d   1       4.552   1.596   1.187  0.00  0.00     0.298 HD
ENDROOT
TORSDOF 0
ENDMDL
