MODEL 1
REMARK minimizedAffinity 13.7822723
REMARK minimizedRMSD -1
REMARK  0 active torsions:
REMARK  status: ('A' for Active; 'I' for Inactive)
ROOT
ATOM      1  N1  IND d   1       2.343   1.464  -0.670  0.00  0.00    -0.196 N 
ATOM      2  C2  IND d   1       3.549   1.470  -0.027  0.00  0.00     0.054 A 
ATOM      3  C3  IND d   1       3.368   1.546   1.311  0.00  0.00    -0.031 A 
ATOM      4  C4  IND d   1       1.179   1.565   2.666  0.00  0.00     0.051 A 
ATOM      5  C5  IND d   1      -0.179   1.610   2.519  0.00  0.00    -0.031 A 
ATOM      6  C6  IND d   1      -0.778   1.606   1.276  0.00  0.00     0.015 A 
ATOM      7  C7  IND d   1      -0.038   1.545   0.129  0.00  0.00    -0.016 A 
ATOM      8  C8  IND d   1       1.341   1.506   0.275  0.00  0.00    -0.047 A 
ATOM      9  C9  IND d   1       1.957   1.553   1.532  0.00  0.00    -0.096 A 
ATOM     10  HN1 IND d   1       2.229   1.438  -1.522  0.00  0.00     0.298 HD
ENDROOT
TORSDOF 0
ENDMDL
