MODEL 1
REMARK minimizedAffinity 9.28192043
REMARK minimizedRMSD -1
REMARK  0 active torsions:
REMARK  status: ('A' for Active; 'I' for Inactive)
ROOT
ATOM      1  N1  IND d   1      -5.890   2.064  -0.412  0.00  0.00    -0.196 N 
ATOM      2  C2  IND d   1      -5.996   0.744  -0.750  0.00  0.00     0.054 A 
ATOM      3  C3  IND d   1      -6.000   0.601  -2.094  0.00  0.00    -0.031 A 
ATOM      4  C4  IND d   1      -5.741   2.387  -3.929  0.00  0.00     0.051 A 
ATOM      5  C5  IND d   1      -5.652   3.739  -4.112  0.00  0.00    -0.031 A 
ATOM      6  C6  IND d   1      -5.635   4.619  -3.049  0.00  0.00     0.015 A 
ATOM      7  C7  IND d   1      -5.695   4.177  -1.758  0.00  0.00    -0.016 A 
ATOM      8  C8  IND d   1      -5.792   2.806  -1.569  0.00  0.00    -0.047 A 
ATOM      9  C9  IND d   1      -5.853   1.911  -2.645  0.00  0.00    -0.096 A 
ATOM     10  HN1 IND d   1      -5.886   2.379   0.388  0.00  0.00     0.298 HD
ENDROOT
TORSDOF 0
ENDMDL
