MODEL 1
REMARK minimizedAffinity -1.73750341
REMARK minimizedRMSD -1
REMARK  0 active torsions:
REMARK  status: ('A' for Active; 'I' for Inactive)
ROOT
ATOM      1  C   UNL d   1      -1.130   0.366  -0.633  0.00  0.00     0.172 C 
ATOM      2  N   UNL d   1      -0.944   0.989   0.656  0.00  0.00    -0.070 N 
ATOM      3  C1  UNL d   1       0.144   0.827   1.471  0.00  0.00    -0.004 A 
ATOM      4  C2  UNL d   1      -0.060   1.584   2.604  0.00  0.00    -0.047 A 
ATOM      5  C3  UNL d   1      -1.316   2.223   2.466  0.00  0.00    -0.047 A 
ATOM      6  C4  UNL d   1      -1.841   1.837   1.251  0.00  0.00    -0.004 A 
ENDROOT
TORSDOF 0
ENDMDL
