MODEL 1
REMARK minimizedAffinity -2.24559927
REMARK minimizedRMSD -1
REMARK  0 active torsions:
REMARK  status: ('A' for Active; 'I' for Inactive)
ROOT
ATOM      1  C   UNL d   1      -1.258   2.050   1.668  0.00  0.00     0.172 C 
ATOM      2  N   UNL d   1      -0.664   0.962   0.926  0.00  0.00    -0.070 N 
ATOM      3  C1  UNL d   1      -0.721   0.798  -0.432  0.00  0.00    -0.004 A 
ATOM      4  C2  UNL d   1      -0.036  -0.356  -0.746  0.00  0.00    -0.047 A 
ATOM      5  C3  UNL d   1       0.448  -0.904   0.466  0.00  0.00    -0.047 A 
ATOM      6  C4  UNL d   1       0.045  -0.068   1.485  0.00  0.00    -0.004 A 
ENDROOT
TORSDOF 0
ENDMDL
