MODEL 1
REMARK minimizedAffinity -3.31261778
REMARK minimizedRMSD -1
REMARK  0 active torsions:
REMARK  status: ('A' for Active; 'I' for Inactive)
ROOT
ATOM      1  C   UNL d   1      -0.062  -1.050  -0.866  0.00  0.00     0.172 C 
ATOM      2  N   UNL d   1      -0.415   0.110  -0.081  0.00  0.00    -0.070 N 
ATOM      3  C1  UNL d   1      -1.144   1.182  -0.524  0.00  0.00    -0.004 A 
ATOM      4  C2  UNL d   1      -1.263   2.072   0.521  0.00  0.00    -0.047 A 
ATOM      5  C3  UNL d   1      -0.583   1.516   1.630  0.00  0.00    -0.047 A 
ATOM      6  C4  UNL d   1      -0.067   0.301   1.230  0.00  0.00    -0.004 A 
ENDROOT
TORSDOF 0
ENDMDL
