MODEL 1
REMARK minimizedAffinity -3.63309789
REMARK minimizedRMSD -1
REMARK  0 active torsions:
REMARK  status: ('A' for Active; 'I' for Inactive)
ROOT
ATOM      1  C   UNL d   1      -1.375   1.802   1.203  0.00  0.00     0.172 C 
ATOM      2  N   UNL d   1      -0.583   1.035   0.271  0.00  0.00    -0.070 N 
ATOM      3  C1  UNL d   1       0.159  -0.075   0.578  0.00  0.00    -0.004 A 
ATOM      4  C2  UNL d   1       0.763  -0.512  -0.581  0.00  0.00    -0.047 A 
ATOM      5  C3  UNL d   1       0.371   0.364  -1.620  0.00  0.00    -0.047 A 
ATOM      6  C4  UNL d   1      -0.462   1.313  -1.065  0.00  0.00    -0.004 A 
ENDROOT
TORSDOF 0
ENDMDL
