MODEL 1
REMARK minimizedAffinity -2.19140434
REMARK minimizedRMSD -1
REMARK  0 active torsions:
REMARK  status: ('A' for Active; 'I' for Inactive)
ROOT
ATOM      1  C   UNL d   1      -0.452  -3.080  -1.453  0.00  0.00     0.172 C 
ATOM      2  N   UNL d   1      -0.199  -1.918  -0.636  0.00  0.00    -0.070 N 
ATOM      3  C1  UNL d   1       0.521  -0.816  -1.014  0.00  0.00    -0.004 A 
ATOM      4  C2  UNL d   1       0.530   0.067   0.044  0.00  0.00    -0.047 A 
ATOM      5  C3  UNL d   1      -0.209  -0.525   1.095  0.00  0.00    -0.047 A 
ATOM      6  C4  UNL d   1      -0.649  -1.753   0.648  0.00  0.00    -0.004 A 
ENDROOT
TORSDOF 0
ENDMDL
