MODEL 1
REMARK minimizedAffinity -2.21266437
REMARK minimizedRMSD -1
REMARK  0 active torsions:
REMARK  status: ('A' for Active; 'I' for Inactive)
ROOT
ATOM      1  C   UNL d   1       0.991  -1.965  -0.726  0.00  0.00     0.172 C 
ATOM      2  N   UNL d   1       0.443  -0.630  -0.686  0.00  0.00    -0.070 N 
ATOM      3  C1  UNL d   1       0.651   0.347  -1.623  0.00  0.00    -0.004 A 
ATOM      4  C2  UNL d   1      -0.042   1.469  -1.224  0.00  0.00    -0.047 A 
ATOM      5  C3  UNL d   1      -0.688   1.157  -0.004  0.00  0.00    -0.047 A 
ATOM      6  C4  UNL d   1      -0.371  -0.149   0.306  0.00  0.00    -0.004 A 
ENDROOT
TORSDOF 0
ENDMDL
