MODEL 1
REMARK minimizedAffinity -3.11734796
REMARK minimizedRMSD -1
REMARK  0 active torsions:
REMARK  status: ('A' for Active; 'I' for Inactive)
ROOT
ATOM      1  C   UNL d   1       0.216  -0.668  -0.496  0.00  0.00     0.172 C 
ATOM      2  N   UNL d   1      -0.367   0.411   0.267  0.00  0.00    -0.070 N 
ATOM      3  C1  UNL d   1      -1.526   1.072  -0.042  0.00  0.00    -0.004 A 
ATOM      4  C2  UNL d   1      -1.739   2.027   0.928  0.00  0.00    -0.047 A 
ATOM      5  C3  UNL d   1      -0.671   1.937   1.852  0.00  0.00    -0.047 A 
ATOM      6  C4  UNL d   1       0.164   0.929   1.419  0.00  0.00    -0.004 A 
ENDROOT
TORSDOF 0
ENDMDL
